F11A
     RDKit          3D

 11 12  0  0  0  0  0  0  0  0999 V2000
  -20.7760   12.5740   25.6110 C   0  0  0  0  0  0  0  0  0  0  0  0
  -18.6980   13.5290   26.0590 C   0  0  0  0  0  0  0  0  0  0  0  0
  -19.1710   14.1040   27.2890 C   0  0  0  0  0  0  0  0  0  0  0  0
  -20.4760   13.8830   27.6510 C   0  0  0  0  0  0  0  0  0  0  0  0
  -21.3130   13.1060   26.8000 C   0  0  0  0  0  0  0  0  0  0  0  0
  -21.5370   11.8240   24.6970 N   0  0  0  0  0  0  0  0  0  0  0  0
  -19.4480   12.7730   25.2520 N   0  0  0  0  0  0  0  0  0  0  0  0
  -22.7950   11.6250   24.9920 C   0  0  0  0  0  0  0  0  0  0  0  0
  -23.4980   13.3380   28.6670 Br  0  0  0  0  0  0  0  0  0  0  0  0
  -22.6720   12.8050   27.0330 C   0  0  0  0  0  0  0  0  0  0  0  0
  -23.4340   12.1020   26.1690 C   0  0  0  0  0  0  0  0  0  0  0  0
  2  3  2  0
  3  4  1  0
  1  5  1  0
  4  5  2  0
  1  6  1  0
  1  7  2  0
  2  7  1  0
  6  8  2  0
  5 10  1  0
  9 10  1  0
  8 11  1  0
 10 11  2  0
M  END
>  <pdb_id>  (1) 
5RJJ

>  <ligand_resn>  (1) 
HH8

>  <SMILES>  (1) 
Brc1ccnc2ncccc12

>  <systematic_name>  (1) 
4-bromanyl-1,8-naphthyridine

>  <ligand_name>  (1) 
NCL-00023833

$$$$
F11B
     RDKit          3D

 11 12  0  0  0  0  0  0  0  0999 V2000
  -24.8020   20.8650    9.6730 C   0  0  0  0  0  0  0  0  0  0  0  0
  -25.4990   22.0900    7.8380 C   0  0  0  0  0  0  0  0  0  0  0  0
  -24.3070   22.8760    7.8450 C   0  0  0  0  0  0  0  0  0  0  0  0
  -23.3530   22.6270    8.7950 C   0  0  0  0  0  0  0  0  0  0  0  0
  -23.5840   21.5920    9.7350 C   0  0  0  0  0  0  0  0  0  0  0  0
  -25.1090   19.8290   10.5760 N   0  0  0  0  0  0  0  0  0  0  0  0
  -25.7620   21.1250    8.7020 N   0  0  0  0  0  0  0  0  0  0  0  0
  -24.1850   19.5180   11.4750 C   0  0  0  0  0  0  0  0  0  0  0  0
  -21.1700   22.3530   11.1670 Br  0  0  0  0  0  0  0  0  0  0  0  0
  -22.6960   21.2030   10.7280 C   0  0  1  0  0  0  0  0  0  0  0  0
  -22.9350   20.1560   11.5640 C   0  0  0  0  0  0  0  0  0  0  0  0
  2  3  1  0
  3  4  1  0
  1  5  1  0
  4  5  1  0
  1  6  1  0
  1  7  1  0
  2  7  1  0
  6  8  1  0
  5 10  1  0
 10  9  1  1
  8 11  1  0
 10 11  1  0
M  END
>  <pdb_id>  (2) 
5RJJ

>  <ligand_resn>  (2) 
HH8

>  <SMILES>  (2) 
Brc1ccnc2ncccc12

>  <systematic_name>  (2) 
4-bromanyl-1,8-naphthyridine

>  <ligand_name>  (2) 
NCL-00023833

$$$$
F1
     RDKit          3D

 10 10  0  0  0  0  0  0  0  0999 V2000
  -24.7550   21.3880    9.7230 C   0  0  0  0  0  0  0  0  0  0  0  0
  -25.7400   21.1510   10.6270 C   0  0  0  0  0  0  0  0  0  0  0  0
  -25.4260   20.4590   11.7850 C   0  0  0  0  0  0  0  0  0  0  0  0
  -20.6230   19.8710   11.4280 N   0  0  0  0  0  0  0  0  0  0  0  0
  -24.1420   20.0290   12.0030 C   0  0  0  0  0  0  0  0  0  0  0  0
  -23.8500   19.3280   13.0740 O   0  0  0  0  0  0  0  0  0  0  0  0
  -23.1160   20.3400   11.0810 C   0  0  0  0  0  0  0  0  0  0  0  0
  -21.7560   20.0540   11.2980 C   0  0  0  0  0  0  0  0  0  0  0  0
  -23.4400   21.0320    9.9200 C   0  0  0  0  0  0  0  0  0  0  0  0
  -25.2730   22.1630    8.0590 Br  0  0  0  0  0  0  0  0  0  0  0  0
  1  2  2  0
  2  3  1  0
  3  5  2  0
  5  6  1  0
  5  7  1  0
  4  8  3  0
  7  8  1  0
  1  9  1  0
  7  9  2  0
  1 10  1  0
M  END
>  <pdb_id>  (3) 
5RJK

>  <ligand_resn>  (3) 
UUJ

>  <SMILES>  (3) 
Oc1ccc(Br)cc1C#N

>  <systematic_name>  (3) 
5-bromo-2-hydroxybenzonitrile

>  <ligand_name>  (3) 
NCL-00024661

$$$$
F6
     RDKit          3D

 11 11  0  0  0  0  0  0  0  0999 V2000
  -22.3500   22.3360    9.0740 C   0  0  0  0  0  0  0  0  0  0  0  0
  -21.8620   23.3470    8.0730 C   0  0  0  0  0  0  0  0  0  0  0  0
  -21.4160   21.6940    9.8860 C   0  0  0  0  0  0  0  0  0  0  0  0
  -21.8350   20.7500   10.8250 C   0  0  0  0  0  0  0  0  0  0  0  0
  -23.1950   20.5120   10.9590 C   0  0  0  0  0  0  0  0  0  0  0  0
  -24.5890   22.6230    8.3670 O   0  0  0  0  0  0  0  0  0  0  0  0
  -24.1520   21.0930   10.1710 C   0  0  0  0  0  0  0  0  0  0  0  0
  -23.6920   22.0190    9.2060 C   0  0  0  0  0  0  0  0  0  0  0  0
  -25.4220   21.7320    7.6830 C   0  0  0  0  0  0  0  0  0  0  0  0
  -22.0760   24.6560    8.4730 O   0  0  0  0  0  0  0  0  0  0  0  0
  -23.7950   19.4380   12.4630 Br  0  0  0  0  0  0  0  0  0  0  0  0
  1  2  1  0
  1  3  2  0
  3  4  1  0
  4  5  2  0
  5  7  1  0
  1  8  1  0
  6  8  1  0
  7  8  2  0
  6  9  1  0
  2 10  1  0
  5 11  1  0
M  END
>  <pdb_id>  (4) 
5RJL

>  <ligand_resn>  (4) 
UUG

>  <SMILES>  (4) 
COc1cc(Br)ccc1CO

>  <systematic_name>  (4) 
(4-bromo-2-methoxyphenyl)methanol

>  <ligand_name>  (4) 
NCL-00024662

$$$$
F12
     RDKit          3D

  9  9  0  0  0  0  0  0  0  0999 V2000
  -19.9910   11.5210   25.3970 N   0  0  0  0  0  0  0  0  0  0  0  0
  -21.3320   11.2980   25.5140 C   0  0  0  0  0  0  0  0  0  0  0  0
  -19.7070   12.5010   26.2960 N   0  0  0  0  0  0  0  0  0  0  0  0
  -21.8510   12.1610   26.5220 C   0  0  0  0  0  0  0  0  0  0  0  0
  -18.8280   14.9900   25.1120 O   0  0  0  0  0  0  0  0  0  0  0  0
  -20.8140   12.9110   27.0250 C   0  0  0  0  0  0  0  0  0  0  0  0
  -18.3850   13.0910   26.3520 C   0  0  0  0  0  0  0  0  0  0  0  0
  -18.1510   13.7930   24.9880 C   0  0  0  0  0  0  0  0  0  0  0  0
  -23.6370   12.2920   27.0380 Br  0  0  0  0  0  0  0  0  0  0  0  0
  1  2  2  0
  1  3  1  0
  2  4  1  0
  3  6  1  0
  4  6  2  0
  3  7  1  0
  5  8  1  0
  7  8  1  0
  4  9  1  0
M  END
>  <pdb_id>  (5) 
5RJM

>  <ligand_resn>  (5) 
UU1

>  <SMILES>  (5) 
OCCn1cc(Br)cn1

>  <systematic_name>  (5) 
2-(4-bromo-1H-pyrazol-1-yl)ethan-1-ol

>  <ligand_name>  (5) 
NCL-00024671

$$$$
F14
     RDKit          3D

 10 10  0  0  0  0  0  0  0  0999 V2000
  -20.0550   11.5540   25.7190 N   0  0  0  0  0  0  0  0  0  0  0  0
  -18.3960   15.3070   24.5650 C   0  0  0  0  0  0  0  0  0  0  0  0
  -21.4080   11.3950   25.4730 C   0  0  0  0  0  0  0  0  0  0  0  0
  -19.9950   12.4750   26.7390 N   0  0  0  0  0  0  0  0  0  0  0  0
  -22.1530   12.2360   26.3690 C   0  0  0  0  0  0  0  0  0  0  0  0
  -18.5790   14.1650   25.2910 O   0  0  0  0  0  0  0  0  0  0  0  0
  -21.2560   12.9090   27.1670 C   0  0  0  0  0  0  0  0  0  0  0  0
  -18.7060   12.9590   27.2290 C   0  0  0  0  0  0  0  0  0  0  0  0
  -18.5140   14.3820   26.6690 C   0  0  0  0  0  0  0  0  0  0  0  0
  -24.0350   12.4090   26.4440 Br  0  0  0  0  0  0  0  0  0  0  0  0
  1  3  2  0
  1  4  1  0
  3  5  1  0
  2  6  1  0
  4  7  1  0
  5  7  2  0
  4  8  1  0
  6  9  1  0
  8  9  1  0
  5 10  1  0
M  END
>  <pdb_id>  (6) 
5RJN

>  <ligand_resn>  (6) 
UUV

>  <SMILES>  (6) 
COCCn1cc(Br)cn1

>  <systematic_name>  (6) 
4-bromo-1-(2-methoxyethyl)-1H-pyrazole

>  <ligand_name>  (6) 
NCL-00024673

$$$$
F760
     RDKit          3D

 11 12  0  0  0  0  0  0  0  0999 V2000
  -16.6270   18.3520   27.4570 O   0  0  0  0  0  0  0  0  0  0  0  0
  -17.0250   17.2030   27.3570 C   0  0  0  0  0  0  0  0  0  0  0  0
  -17.3790   16.2240   28.4800 C   0  0  0  0  0  0  0  0  0  0  0  0
  -17.1780   16.5320   26.1380 N   0  0  0  0  0  0  0  0  0  0  0  0
  -17.5730   15.1930   26.3610 C   0  0  0  0  0  0  0  0  0  0  0  0
  -17.8020   14.1850   25.4410 C   0  0  0  0  0  0  0  0  0  0  0  0
  -18.1930   12.9620   25.9760 C   0  0  0  0  0  0  0  0  0  0  0  0
  -18.5130   11.5070   24.7380 Br  0  0  0  0  0  0  0  0  0  0  0  0
  -17.7130   14.9670   27.7630 C   0  0  0  0  0  0  0  0  0  0  0  0
  -18.1080   13.7340   28.2510 C   0  0  0  0  0  0  0  0  0  0  0  0
  -18.3640   12.7010   27.3390 C   0  0  0  0  0  0  0  0  0  0  0  0
  1  2  2  0
  2  3  1  0
  2  4  1  0
  4  5  1  0
  5  6  1  0
  6  7  2  0
  7  8  1  0
  3  9  1  0
  5  9  2  0
  9 10  1  0
  7 11  1  0
 10 11  2  0
M  END
>  <pdb_id>  (7) 
5RJO

>  <ligand_resn>  (7) 
1P8

>  <SMILES>  (7) 
Brc1ccc2CC(=O)Nc2c1

>  <systematic_name>  (7) 
6-bromo-1,3-dihydro-2H-indol-2-one

>  <ligand_name>  (7) 
NCL-00023827

$$$$
F762
     RDKit          3D

 11 11  0  0  0  0  0  0  0  0999 V2000
  -21.4950   13.2960   27.9020 C   0  0  0  0  0  0  0  0  0  0  0  0
  -22.3310   12.5880   27.0080 C   0  0  0  0  0  0  0  0  0  0  0  0
  -21.8960   12.0280   25.8560 C   0  0  0  0  0  0  0  0  0  0  0  0
  -19.6850   12.9860   26.3860 N   0  0  0  0  0  0  0  0  0  0  0  0
  -20.4850   12.2150   25.4830 C   0  0  0  0  0  0  0  0  0  0  0  0
  -19.9600   11.7730   24.4700 O   0  0  0  0  0  0  0  0  0  0  0  0
  -18.3310   13.3620   25.9870 C   0  0  0  0  0  0  0  0  0  0  0  0
  -18.3800   14.5630   24.9990 C   0  0  0  0  0  0  0  0  0  0  0  0
  -20.1850   13.4810   27.5780 C   0  0  0  0  0  0  0  0  0  0  0  0
  -18.8930   15.6700   25.6680 O   0  0  0  0  0  0  0  0  0  0  0  0
  -24.2130   12.5610   27.4760 Br  0  0  0  0  0  0  0  0  0  0  0  0
  1  2  1  0
  2  3  2  0
  3  5  1  0
  4  5  1  0
  5  6  2  0
  4  7  1  0
  7  8  1  0
  1  9  2  0
  4  9  1  0
  8 10  1  0
  2 11  1  0
M  END
>  <pdb_id>  (8) 
5RJP

>  <ligand_resn>  (8) 
UUS

>  <SMILES>  (8) 
OCCN1C=CC(=CC1=O)Br

>  <systematic_name>  (8) 
4-bromo-1-(2-hydroxyethyl)pyridin-2(1H)-one

>  <ligand_name>  (8) 
NCL-00024672

$$$$
F5A
     RDKit          3D

 13 13  0  0  0  0  0  0  0  0999 V2000
  -24.2460   22.5700    7.7310 C   0  0  0  0  0  0  0  0  0  0  0  0
  -25.3420   21.7880    8.0570 C   0  0  0  0  0  0  0  0  0  0  0  0
  -25.1950   20.8740    9.0910 C   0  0  0  0  0  0  0  0  0  0  0  0
  -23.9720   20.7680    9.7530 C   0  0  0  0  0  0  0  0  0  0  0  0
  -23.7480   19.7310   10.7930 C   0  0  0  0  0  0  0  0  0  0  0  0
  -24.1220   20.1180   12.1830 C   0  0  0  0  0  0  0  0  0  0  0  0
  -23.0280   22.5210    8.3520 C   0  0  0  0  0  0  0  0  0  0  0  0
  -20.5590   21.9790    9.6590 C   0  0  0  0  0  0  0  0  0  0  0  0
  -21.7500   21.3780   10.1140 O   0  0  0  0  0  0  0  0  0  0  0  0
  -22.8960   21.5880    9.3900 C   0  0  0  0  0  0  0  0  0  0  0  0
  -24.4010   23.8220    6.2870 Br  0  0  0  0  0  0  0  0  0  0  0  0
  -24.2810   19.3340   13.0610 O   0  0  0  0  0  0  0  0  0  0  0  0
  -24.2640   21.4450   12.4140 O   0  0  0  0  0  0  0  0  0  0  0  0
  1  2  2  0
  2  3  1  0
  3  4  2  0
  4  5  1  0
  5  6  1  0
  1  7  1  0
  8  9  1  0
  4 10  1  0
  7 10  2  0
  9 10  1  0
  1 11  1  0
  6 12  1  0
  6 13  2  0
M  END
>  <pdb_id>  (9) 
5RJQ

>  <ligand_resn>  (9) 
HHT

>  <SMILES>  (9) 
COc1cc(Br)ccc1CC(O)=O

>  <systematic_name>  (9) 
2-(4-bromanyl-2-methoxy-phenyl)ethanoic acid

>  <ligand_name>  (9) 
NCL-00024665

$$$$
F5B
     RDKit          3D

 13 13  0  0  0  0  0  0  0  0999 V2000
  -21.2120   12.3100   25.6820 C   0  0  0  0  0  0  0  0  0  0  0  0
  -21.5270   12.8380   26.9260 C   0  0  0  0  0  0  0  0  0  0  0  0
  -20.5200   13.5460   27.5990 C   0  0  0  0  0  0  0  0  0  0  0  0
  -19.2640   13.6850   26.9970 C   0  0  0  0  0  0  0  0  0  0  0  0
  -18.1640   14.3900   27.6810 C   0  0  0  0  0  0  0  0  0  0  0  0
  -17.9210   15.7390   27.0550 C   0  0  0  0  0  0  0  0  0  0  0  0
  -20.0050   12.4220   25.0670 C   0  0  0  0  0  0  0  0  0  0  0  0
  -17.7630   14.0150   23.9710 C   0  0  0  0  0  0  0  0  0  0  0  0
  -17.7880   13.3060   25.1940 O   0  0  0  0  0  0  0  0  0  0  0  0
  -19.0260   13.1260   25.7340 C   0  0  0  0  0  0  0  0  0  0  0  0
  -22.5240   11.3800   24.6440 Br  0  0  0  0  0  0  0  0  0  0  0  0
  -19.0070   16.5010   27.0430 O   0  0  0  0  0  0  0  0  0  0  0  0
  -16.8880   16.1850   26.5770 O   0  0  0  0  0  0  0  0  0  0  0  0
  1  2  1  0
  2  3  1  0
  3  4  1  0
  4  5  1  0
  5  6  1  0
  1  7  1  0
  8  9  1  0
  4 10  1  0
  7 10  1  0
  9 10  1  0
  1 11  1  0
  6 12  1  0
  6 13  1  0
M  END
>  <pdb_id>  (10) 
5RJQ

>  <ligand_resn>  (10) 
HHT

>  <SMILES>  (10) 
COc1cc(Br)ccc1CC(O)=O

>  <systematic_name>  (10) 
2-(4-bromanyl-2-methoxy-phenyl)ethanoic acid

>  <ligand_name>  (10) 
NCL-00024665

$$$$
F616
     RDKit          3D

 14 14  0  0  0  0  0  0  0  0999 V2000
  -18.3850   14.0040   24.6050 C   0  0  0  0  0  0  0  0  0  0  0  0
  -18.4780   12.6350   24.3510 C   0  0  0  0  0  0  0  0  0  0  0  0
  -18.6250   11.7710   25.4530 C   0  0  0  0  0  0  0  0  0  0  0  0
  -18.6840   12.2350   26.7740 C   0  0  0  0  0  0  0  0  0  0  0  0
  -18.5900   13.5830   27.0100 C   0  0  0  0  0  0  0  0  0  0  0  0
  -16.6260   17.5990   26.6680 N   0  0  0  0  0  0  0  0  0  0  0  0
  -14.1670   18.2110   26.0040 C   0  0  0  0  0  0  0  0  0  0  0  0
  -15.4330   19.4570   27.7210 O   0  0  0  0  0  0  0  0  0  0  0  0
  -16.8410   16.1890   26.3960 C   0  0  0  0  0  0  0  0  0  0  0  0
  -18.3290   15.9070   26.2180 C   0  0  0  0  0  0  0  0  0  0  0  0
  -18.4390   14.4580   25.9380 C   0  0  0  0  0  0  0  0  0  0  0  0
  -18.6450   10.4520   25.2360 F   0  0  0  0  0  0  0  0  0  0  0  0
  -14.8040   17.1750   28.2740 O   0  0  0  0  0  0  0  0  0  0  0  0
  -15.2390   18.1190   27.3160 S   0  0  1  0  0  0  0  0  0  0  0  0
  1  2  2  0
  2  3  1  0
  3  4  2  0
  4  5  1  0
  6  9  1  0
  9 10  1  0
  1 11  1  0
  5 11  2  0
 10 11  1  0
  3 12  1  0
  6 14  1  0
 14  7  1  6
  8 14  2  0
 13 14  2  0
M  END
>  <pdb_id>  (11) 
5RJR

>  <ligand_resn>  (11) 
S9S

>  <SMILES>  (11) 
C[S](=O)(=O)NCCc1ccc(F)cc1

>  <systematic_name>  (11) 
~{N}-[2-(4-fluorophenyl)ethyl]methanesulfonamide

>  <ligand_name>  (11) 
Z45705015

$$$$
F741
     RDKit          3D

 15 17  0  0  0  0  0  0  0  0999 V2000
  -24.2440   11.6900   25.8320 N   0  0  0  0  0  0  0  0  0  0  0  0
  -22.0200   13.4840   28.0820 N   0  0  0  0  0  0  0  0  0  0  0  0
  -22.0360   12.3040   25.8360 C   0  0  0  0  0  0  0  0  0  0  0  0
  -23.0990   11.6180   25.1230 C   0  0  0  0  0  0  0  0  0  0  0  0
  -24.7540   12.6960   28.0340 C   0  0  0  0  0  0  0  0  0  0  0  0
  -24.2240   13.3840   29.0880 C   0  0  0  0  0  0  0  0  0  0  0  0
  -22.8540   13.7640   29.0820 C   0  0  0  0  0  0  0  0  0  0  0  0
  -19.8700   13.1390   26.2030 N   0  0  0  0  0  0  0  0  0  0  0  0
  -20.6770   12.4360   25.3480 C   0  0  0  0  0  0  0  0  0  0  0  0
  -20.3030   11.9350   24.2920 O   0  0  0  0  0  0  0  0  0  0  0  0
  -18.5150   13.4070   25.8740 C   0  0  1  0  0  0  0  0  0  0  0  0
  -18.2200   14.3150   24.6840 C   0  0  0  0  0  0  0  0  0  0  0  0
  -18.1200   14.8370   26.0830 C   0  0  0  0  0  0  0  0  0  0  0  0
  -22.5660   12.7870   27.0260 C   0  0  0  0  0  0  0  0  0  0  0  0
  -23.9280   12.3860   26.9820 N   0  0  0  0  0  0  0  0  0  0  0  0
  1  4  2  0
  3  4  1  0
  5  6  2  0
  2  7  2  0
  6  7  1  0
  3  9  1  0
  8  9  1  0
  9 10  2  0
 11  8  1  6
 11 12  1  0
 11 13  1  0
 12 13  1  0
  2 14  1  0
  3 14  2  0
  1 15  1  0
  5 15  1  0
 14 15  1  0
M  END
>  <pdb_id>  (12) 
5RJS

>  <ligand_resn>  (12) 
UUP

>  <SMILES>  (12) 
O=C(NC1CC1)c2cnn3cccnc23

>  <systematic_name>  (12) 
N-cyclopropylpyrazolo[1,5-a]pyrimidine-3-carboxamide

>  <ligand_name>  (12) 
Z285642082

$$$$
F199
     RDKit          3D

 15 16  0  0  0  0  0  0  0  0999 V2000
  -17.0950   17.1780   25.9160 N   0  0  0  0  0  0  0  0  0  0  0  0
  -18.9240   14.3110   26.9520 N   0  0  0  0  0  0  0  0  0  0  0  0
  -16.1540   17.7970   26.7290 C   0  0  0  0  0  0  0  0  0  0  0  0
  -17.7410   15.9600   26.0840 C   0  0  0  0  0  0  0  0  0  0  0  0
  -18.0380   14.9690   25.0880 C   0  0  0  0  0  0  0  0  0  0  0  0
  -19.6760   13.4890   27.9050 C   0  0  0  0  0  0  0  0  0  0  0  0
  -18.3150   15.5150   27.2580 C   0  0  0  0  0  0  0  0  0  0  0  0
  -16.5330   20.2100   26.1500 N   0  0  0  0  0  0  0  0  0  0  0  0
  -13.9640   21.5890   24.0780 C   0  0  0  0  0  0  0  0  0  0  0  0
  -15.9380   21.1500   25.4210 O   0  0  0  0  0  0  0  0  0  0  0  0
  -14.7430   20.6700   24.9290 C   0  0  0  0  0  0  0  0  0  0  0  0
  -14.5610   19.3670   25.3690 C   0  0  0  0  0  0  0  0  0  0  0  0
  -15.7500   19.1040   26.1480 C   0  0  0  0  0  0  0  0  0  0  0  0
  -18.7680   13.9640   25.6470 N   0  0  0  0  0  0  0  0  0  0  0  0
  -15.7260   17.3750   27.8080 O   0  0  0  0  0  0  0  0  0  0  0  0
  1  3  1  0
  1  4  1  0
  4  5  1  0
  2  6  1  0
  2  7  1  0
  4  7  2  0
  8 10  1  0
  9 11  1  0
 10 11  1  0
 11 12  2  0
  3 13  1  0
  8 13  2  0
 12 13  1  0
  2 14  1  0
  5 14  2  0
  3 15  2  0
M  END
>  <pdb_id>  (13) 
5RJT

>  <ligand_resn>  (13) 
UUM

>  <SMILES>  (13) 
Cn1cc(NC(=O)c2cc(C)on2)cn1

>  <systematic_name>  (13) 
5-methyl-N-(1-methyl-1H-pyrazol-4-yl)-1,2-oxazole-3-carboxamide

>  <ligand_name>  (13) 
Z404993336

$$$$
F728
     RDKit          3D

 15 16  0  0  0  0  0  0  0  0999 V2000
  -25.5260    3.4900   24.4720 N   0  0  0  0  0  0  0  0  0  0  0  0
  -24.3930    1.3950   27.1150 N   0  0  0  0  0  0  0  0  0  0  0  0
  -28.4590    5.7590   24.2840 C   0  0  0  0  0  0  0  0  0  0  0  0
  -29.6920    6.6890   24.4530 C   0  0  0  0  0  0  0  0  0  0  0  0
  -30.1320    7.3860   23.1430 C   0  0  0  0  0  0  0  0  0  0  0  0
  -30.2770    6.3510   22.0060 C   0  0  0  0  0  0  0  0  0  0  0  0
  -28.9510    5.5850   21.7810 C   0  0  0  0  0  0  0  0  0  0  0  0
  -24.8370    3.5350   26.8490 C   0  0  0  0  0  0  0  0  0  0  0  0
  -26.8500    3.2930   24.1050 C   0  0  0  0  0  0  0  0  0  0  0  0
  -27.2840    4.0010   22.8430 C   0  0  0  0  0  0  0  0  0  0  0  0
  -28.5790    4.8080   23.0590 C   0  0  1  0  0  0  0  0  0  0  0  0
  -24.7330    1.5400   25.7990 C   0  0  0  0  0  0  0  0  0  0  0  0
  -25.0390    2.9100   25.6070 N   0  0  0  0  0  0  0  0  0  0  0  0
  -24.4580    2.5780   27.7190 N   0  0  0  0  0  0  0  0  0  0  0  0
  -27.5630    2.5770   24.7710 O   0  0  0  0  0  0  0  0  0  0  0  0
  3  4  1  0
  4  5  1  0
  5  6  1  0
  6  7  1  0
  1  9  1  0
  9 10  1  0
  3 11  1  0
  7 11  1  0
 11 10  1  6
  2 12  2  0
  1 13  1  0
  8 13  1  0
 12 13  1  0
  2 14  1  0
  8 14  2  0
  9 15  2  0
M  END
>  <pdb_id>  (14) 
5RJU

>  <ligand_resn>  (14) 
O2D

>  <SMILES>  (14) 
O=C(CC1CCCCC1)Nn2cnnc2

>  <systematic_name>  (14) 
2-cyclohexyl-N-(4H-1,2,4-triazol-4-yl)acetamide

>  <ligand_name>  (14) 
Z57261895

$$$$
F558
     RDKit          3D

 18 19  0  0  0  0  0  0  0  0999 V2000
  -24.0000   12.2000   25.8950 N   0  0  0  0  0  0  0  0  0  0  0  0
  -18.7050   14.0890   24.9580 C   0  0  0  0  0  0  0  0  0  0  0  0
  -19.1200   13.6630   26.2130 C   0  0  0  0  0  0  0  0  0  0  0  0
  -19.6820   12.2900   26.3510 C   0  0  0  0  0  0  0  0  0  0  0  0
  -21.1790   12.2740   26.2200 C   0  0  0  0  0  0  0  0  0  0  0  0
  -21.7430   11.8040   25.0100 C   0  0  0  0  0  0  0  0  0  0  0  0
  -23.4300   12.6370   27.0750 C   0  0  0  0  0  0  0  0  0  0  0  0
  -18.3000   15.7140   27.2050 C   0  0  0  0  0  0  0  0  0  0  0  0
  -16.9880   17.2550   25.8540 N   0  0  0  0  0  0  0  0  0  0  0  0
  -14.3710   19.4240   27.0410 C   0  0  0  0  0  0  0  0  0  0  0  0
  -15.3830   18.8120   26.2590 O   0  0  0  0  0  0  0  0  0  0  0  0
  -16.0240   17.7030   26.7820 C   0  0  0  0  0  0  0  0  0  0  0  0
  -22.0170   12.6980   27.2750 C   0  0  0  0  0  0  0  0  0  0  0  0
  -18.9430   14.4780   27.3310 C   0  0  0  0  0  0  0  0  0  0  0  0
  -17.8280   16.1110   25.9510 C   0  0  0  0  0  0  0  0  0  0  0  0
  -18.0640   15.3060   24.8120 C   0  0  0  0  0  0  0  0  0  0  0  0
  -23.1350   11.7950   24.8950 C   0  0  0  0  0  0  0  0  0  0  0  0
  -15.7510   17.2800   27.9130 O   0  0  0  0  0  0  0  0  0  0  0  0
  2  3  2  0
  3  4  1  0
  4  5  1  0
  5  6  1  0
  1  7  2  0
 10 11  1  0
  9 12  1  0
 11 12  1  0
  5 13  2  0
  7 13  1  0
  3 14  1  0
  8 14  2  0
  8 15  1  0
  9 15  1  0
  2 16  1  0
 15 16  2  0
  1 17  1  0
  6 17  2  0
 12 18  2  0
M  END
>  <pdb_id>  (15) 
5RJV

>  <ligand_resn>  (15) 
UVD

>  <SMILES>  (15) 
COC(=O)Nc1ccc(Cc2ccncc2)cc1

>  <systematic_name>  (15) 
methyl {4-[(pyridin-4-yl)methyl]phenyl}carbamate

>  <ligand_name>  (15) 
Z57190020

$$$$
F309
     RDKit          3D

  9  9  0  0  0  0  0  0  0  0999 V2000
  -23.0950   12.5110   26.9400 S   0  0  0  0  0  0  0  0  0  0  0  0
  -21.5690   12.6410   26.1350 C   0  0  0  0  0  0  0  0  0  0  0  0
  -20.6230   13.2590   26.9260 C   0  0  0  0  0  0  0  0  0  0  0  0
  -21.1730   13.6090   28.1900 C   0  0  0  0  0  0  0  0  0  0  0  0
  -22.4810   13.2600   28.3140 C   0  0  0  0  0  0  0  0  0  0  0  0
  -19.2140   13.6120   26.5790 C   0  0  0  0  0  0  0  0  0  0  0  0
  -21.3640   12.1030   24.8030 C   0  0  0  0  0  0  0  0  0  0  0  0
  -20.2980   12.0570   24.1940 O   0  0  0  0  0  0  0  0  0  0  0  0
  -22.4580   11.5750   24.1950 O   0  0  0  0  0  0  0  0  0  0  0  0
  1  2  1  0
  2  3  2  0
  3  4  1  0
  1  5  1  0
  4  5  2  0
  3  6  1  0
  2  7  1  0
  7  8  1  0
  7  9  2  0
M  END
>  <pdb_id>  (16) 
5RJW

>  <ligand_resn>  (16) 
60P

>  <SMILES>  (16) 
Cc1ccsc1C(O)=O

>  <systematic_name>  (16) 
3-methylthiophene-2-carboxylic acid

>  <ligand_name>  (16) 
Z256709556

$$$$
F529
     RDKit          3D

 12 12  0  0  0  0  0  0  0  0999 V2000
  -22.6050   11.7870   25.1260 C   0  0  0  0  0  0  0  0  0  0  0  0
  -21.3550   12.2840   25.3990 C   0  0  0  0  0  0  0  0  0  0  0  0
  -21.0840   13.1810   26.4870 C   0  0  0  0  0  0  0  0  0  0  0  0
  -18.9020   13.0790   27.9360 C   0  0  0  0  0  0  0  0  0  0  0  0
  -22.0130   14.4090   28.3800 N   0  0  0  0  0  0  0  0  0  0  0  0
  -23.1240   14.8920   29.2450 C   0  0  0  0  0  0  0  0  0  0  0  0
  -18.7910   13.2840   25.4680 O   0  0  0  0  0  0  0  0  0  0  0  0
  -22.1910   13.5300   27.3290 C   0  0  0  0  0  0  0  0  0  0  0  0
  -23.4980   13.0040   27.0510 C   0  0  0  0  0  0  0  0  0  0  0  0
  -23.6950   12.1850   25.9830 C   0  0  0  0  0  0  0  0  0  0  0  0
  -19.5610   15.2140   26.8090 O   0  0  0  0  0  0  0  0  0  0  0  0
  -19.5520   13.7900   26.5780 S   0  0  1  0  0  0  0  0  0  0  0  0
  1  2  2  0
  2  3  1  0
  5  6  1  0
  3  8  2  0
  5  8  1  0
  8  9  1  0
  1 10  1  0
  9 10  2  0
  3 12  1  0
 12  4  1  1
  7 12  2  0
 11 12  2  0
M  END
>  <pdb_id>  (17) 
5RJX

>  <ligand_resn>  (17) 
UVA

>  <SMILES>  (17) 
CNc1ccccc1[S](C)(=O)=O

>  <systematic_name>  (17) 
N-methyl-2-(methylsulfonyl)aniline

>  <ligand_name>  (17) 
Z285782452

$$$$
F96
     RDKit          3D

 10 10  0  0  0  0  0  0  0  0999 V2000
  -18.1850   15.6960   24.8910 N   0  0  0  0  0  0  0  0  0  0  0  0
  -18.4430   14.3940   25.1020 C   0  0  0  0  0  0  0  0  0  0  0  0
  -19.1160   15.5020   26.9330 C   0  0  0  0  0  0  0  0  0  0  0  0
  -20.8310   12.5420   26.6560 N   0  0  0  0  0  0  0  0  0  0  0  0
  -22.5690   11.6290   25.1830 C   0  0  0  0  0  0  0  0  0  0  0  0
  -20.3150   11.9270   24.5240 O   0  0  0  0  0  0  0  0  0  0  0  0
  -21.1450   12.0270   25.4110 C   0  0  0  0  0  0  0  0  0  0  0  0
  -19.4400   12.9390   27.0020 C   0  0  0  0  0  0  0  0  0  0  0  0
  -19.0310   14.2240   26.3730 C   0  0  0  0  0  0  0  0  0  0  0  0
  -18.5780   16.3640   25.9920 N   0  0  0  0  0  0  0  0  0  0  0  0
  1  2  1  0
  4  7  1  0
  5  7  1  0
  6  7  2  0
  4  8  1  0
  2  9  2  0
  3  9  1  0
  8  9  1  0
  1 10  1  0
  3 10  2  0
M  END
>  <pdb_id>  (18) 
5RJY

>  <ligand_resn>  (18) 
UV7

>  <SMILES>  (18) 
CC(=O)NCc1c[nH]nc1

>  <systematic_name>  (18) 
N-[(1H-pyrazol-4-yl)methyl]acetamide

>  <ligand_name>  (18) 
Z383325512

$$$$
F374
     RDKit          3D

 10 10  0  0  0  0  0  0  0  0999 V2000
  -24.0200   12.5340   27.0140 N   0  0  0  0  0  0  0  0  0  0  0  0
  -23.1360   11.6590   25.2350 N   0  0  0  0  0  0  0  0  0  0  0  0
  -22.6630   12.7930   27.1530 C   0  0  0  0  0  0  0  0  0  0  0  0
  -19.9650   13.1660   26.5080 N   0  0  0  0  0  0  0  0  0  0  0  0
  -18.3600   14.5510   25.2500 C   0  0  0  0  0  0  0  0  0  0  0  0
  -20.2500   11.8420   24.6200 O   0  0  0  0  0  0  0  0  0  0  0  0
  -18.5520   13.4250   26.2670 C   0  0  0  0  0  0  0  0  0  0  0  0
  -20.6940   12.3850   25.6320 C   0  0  0  0  0  0  0  0  0  0  0  0
  -22.0980   12.2470   26.0110 C   0  0  0  0  0  0  0  0  0  0  0  0
  -24.2820   11.8590   25.8480 N   0  0  0  0  0  0  0  0  0  0  0  0
  1  3  1  0
  4  7  1  0
  5  7  1  0
  4  8  1  0
  6  8  2  0
  2  9  1  0
  3  9  2  0
  8  9  1  0
  1 10  1  0
  2 10  2  0
M  END
>  <pdb_id>  (19) 
5RJZ

>  <ligand_resn>  (19) 
K0J

>  <SMILES>  (19) 
CCNC(=O)c1c[nH]nn1

>  <systematic_name>  (19) 
N-ethyl-1H-1,2,3-triazole-4-carboxamide

>  <ligand_name>  (19) 
Z755044716

$$$$
F95
     RDKit          3D

 15 15  0  0  0  0  0  0  0  0999 V2000
  -22.9470   14.2970   28.2530 C   0  0  0  0  0  0  0  0  0  0  0  0
  -18.2580   13.9810   24.7620 C   0  0  0  0  0  0  0  0  0  0  0  0
  -18.8480   12.8730   25.6150 C   0  0  0  0  0  0  0  0  0  0  0  0
  -19.2130   14.3930   27.5780 C   0  0  0  0  0  0  0  0  0  0  0  0
  -20.6520   14.8120   27.6800 C   0  0  0  0  0  0  0  0  0  0  0  0
  -21.0400   16.0340   27.1310 C   0  0  0  0  0  0  0  0  0  0  0  0
  -22.3820   16.3610   27.1200 C   0  0  0  0  0  0  0  0  0  0  0  0
  -23.3750   15.4900   27.6520 C   0  0  0  0  0  0  0  0  0  0  0  0
  -21.5960   13.9460   28.2620 C   0  0  0  0  0  0  0  0  0  0  0  0
  -19.2100   13.1060   26.9350 N   0  0  0  0  0  0  0  0  0  0  0  0
  -25.6370   14.3680   27.0300 N   0  0  0  0  0  0  0  0  0  0  0  0
  -19.1190   11.7950   25.1560 O   0  0  0  0  0  0  0  0  0  0  0  0
  -25.5990   16.2020   28.6540 O   0  0  0  0  0  0  0  0  0  0  0  0
  -25.1580   16.6190   26.2680 O   0  0  0  0  0  0  0  0  0  0  0  0
  -25.0160   15.8060   27.4230 S   0  0  1  0  0  0  0  0  0  0  0  0
  2  3  1  0
  4  5  1  0
  5  6  1  0
  6  7  2  0
  1  8  2  0
  7  8  1  0
  1  9  1  0
  5  9  2  0
  3 10  1  0
  4 10  1  0
  3 12  2  0
  8 15  1  0
 15 11  1  6
 13 15  2  0
 14 15  2  0
M  END
>  <pdb_id>  (20) 
5RK0

>  <ligand_resn>  (20) 
T0S

>  <SMILES>  (20) 
CC(=O)NCc1ccc(cc1)[S](N)(=O)=O

>  <systematic_name>  (20) 
N-[(4-sulfamoylphenyl)methyl]acetamide

>  <ligand_name>  (20) 
Z30932204

$$$$
F584
     RDKit          3D

 14 15  0  0  0  0  0  0  0  0999 V2000
  -18.2370   10.7450   24.2370 C   0  0  0  0  0  0  0  0  0  0  0  0
  -18.5960   12.0440   24.7000 C   0  0  0  0  0  0  0  0  0  0  0  0
  -19.7770   12.8820   26.6960 C   0  0  0  0  0  0  0  0  0  0  0  0
  -18.4740   13.4450   27.1870 C   0  0  0  0  0  0  0  0  0  0  0  0
  -18.1750   14.7090   26.3860 C   0  0  0  0  0  0  0  0  0  0  0  0
  -17.8490   13.1530   24.3650 C   0  0  0  0  0  0  0  0  0  0  0  0
  -19.7060   12.0960   25.5310 N   0  0  0  0  0  0  0  0  0  0  0  0
  -14.8030   13.8780   22.3780 C   0  0  0  0  0  0  0  0  0  0  0  0
  -15.9380   14.0500   23.2510 O   0  0  0  0  0  0  0  0  0  0  0  0
  -16.7380   12.9410   23.5250 C   0  0  0  0  0  0  0  0  0  0  0  0
  -16.4360   11.6890   23.0560 C   0  0  0  0  0  0  0  0  0  0  0  0
  -17.2200   10.5920   23.4470 C   0  0  0  0  0  0  0  0  0  0  0  0
  -18.0960   14.5330   24.8730 C   0  0  0  0  0  0  0  0  0  0  0  0
  -20.8590   13.0440   27.2590 O   0  0  0  0  0  0  0  0  0  0  0  0
  1  2  2  0
  3  4  1  0
  4  5  1  0
  2  6  1  0
  2  7  1  0
  3  7  1  0
  8  9  1  0
  6 10  2  0
  9 10  1  0
 10 11  1  0
  1 12  1  0
 11 12  2  0
  5 13  1  0
  6 13  1  0
  3 14  2  0
M  END
>  <pdb_id>  (21) 
5RK1

>  <ligand_resn>  (21) 
UV1

>  <SMILES>  (21) 
COc1cccc2NC(=O)CCCc12

>  <systematic_name>  (21) 
6-methoxy-1,3,4,5-tetrahydro-2H-1-benzazepin-2-one

>  <ligand_name>  (21) 
Z1507502062

$$$$
F195
     RDKit          3D

 11 11  0  0  0  0  0  0  0  0999 V2000
  -21.6080   11.9410   24.8600 N   0  0  0  0  0  0  0  0  0  0  0  0
  -21.5850   13.1520   27.0340 C   0  0  0  0  0  0  0  0  0  0  0  0
  -22.8990   12.7500   27.2320 C   0  0  0  0  0  0  0  0  0  0  0  0
  -23.5520   11.9760   26.2700 C   0  0  0  0  0  0  0  0  0  0  0  0
  -22.8480   11.5860   25.1020 C   0  0  0  0  0  0  0  0  0  0  0  0
  -19.6310   13.2140   25.4950 N   0  0  0  0  0  0  0  0  0  0  0  0
  -18.9110   14.1460   26.4030 C   0  0  0  0  0  0  0  0  0  0  0  0
  -17.6980   10.5810   24.0000 O   0  0  0  0  0  0  0  0  0  0  0  0
  -18.8180   12.5550   24.4690 C   0  0  0  0  0  0  0  0  0  0  0  0
  -18.4980   11.1400   24.9420 C   0  0  0  0  0  0  0  0  0  0  0  0
  -20.9520   12.7510   25.8190 C   0  0  0  0  0  0  0  0  0  0  0  0
  2  3  1  0
  3  4  2  0
  1  5  2  0
  4  5  1  0
  6  7  1  0
  6  9  1  0
  8 10  1  0
  9 10  1  0
  1 11  1  0
  2 11  2  0
  6 11  1  0
M  END
>  <pdb_id>  (22) 
5RK2

>  <ligand_resn>  (22) 
UUY

>  <SMILES>  (22) 
CN(CCO)c1ccccn1

>  <systematic_name>  (22) 
2-[methyl(pyridin-2-yl)amino]ethan-1-ol

>  <ligand_name>  (22) 
Z54633859

$$$$
F205
     RDKit          3D

 10 10  0  0  0  0  0  0  0  0999 V2000
  -21.2250   12.2020   25.8340 N   0  0  0  0  0  0  0  0  0  0  0  0
  -19.2380   13.6240   25.5710 C   0  0  0  0  0  0  0  0  0  0  0  0
  -20.1630   12.6040   25.0400 C   0  0  0  0  0  0  0  0  0  0  0  0
  -22.1550   11.2050   25.2390 C   0  0  0  0  0  0  0  0  0  0  0  0
  -18.3060   14.1140   24.6810 N   0  0  0  0  0  0  0  0  0  0  0  0
  -22.4700   12.3100   28.0210 C   0  0  0  0  0  0  0  0  0  0  0  0
  -20.0200   12.0920   23.9390 O   0  0  0  0  0  0  0  0  0  0  0  0
  -21.3700   12.7460   27.1370 C   0  0  0  0  0  0  0  0  0  0  0  0
  -20.4800   13.6510   27.6130 C   0  0  0  0  0  0  0  0  0  0  0  0
  -19.3910   14.1110   26.8370 C   0  0  0  0  0  0  0  0  0  0  0  0
  1  3  1  0
  2  3  1  0
  1  4  1  0
  2  5  1  0
  3  7  2  0
  1  8  1  0
  6  8  1  0
  8  9  2  0
  2 10  2  0
  9 10  1  0
M  END
>  <pdb_id>  (23) 
5RK3

>  <ligand_resn>  (23) 
UVV

>  <SMILES>  (23) 
CN1C(=CC=C(N)C1=O)C

>  <systematic_name>  (23) 
3-amino-1,6-dimethylpyridin-2(1H)-one

>  <ligand_name>  (23) 
Z1501469697

$$$$
F362
     RDKit          3D

 15 16  0  0  0  0  0  0  0  0999 V2000
  -23.8160   13.3690   27.8270 N   0  0  0  0  0  0  0  0  0  0  0  0
  -21.8690   11.8990   25.0910 N   0  0  0  0  0  0  0  0  0  0  0  0
  -21.0120   13.2400   27.0730 C   0  0  0  0  0  0  0  0  0  0  0  0
  -21.4530   13.8680   28.2200 C   0  0  0  0  0  0  0  0  0  0  0  0
  -22.8420   13.9150   28.5450 C   0  0  0  0  0  0  0  0  0  0  0  0
  -23.2420   14.6690   29.7670 C   0  0  0  0  0  0  0  0  0  0  0  0
  -23.4010   12.7070   26.6660 C   0  0  0  0  0  0  0  0  0  0  0  0
  -19.6370   13.3270   26.7390 N   0  0  0  0  0  0  0  0  0  0  0  0
  -18.0410   12.6640   28.3600 C   0  0  0  0  0  0  0  0  0  0  0  0
  -18.6980   12.2460   27.0610 C   0  0  0  0  0  0  0  0  0  0  0  0
  -19.2460   14.2690   25.6870 C   0  0  0  0  0  0  0  0  0  0  0  0
  -18.8370   13.6340   24.3620 C   0  0  0  0  0  0  0  0  0  0  0  0
  -23.1750   11.5880   24.8090 C   0  0  0  0  0  0  0  0  0  0  0  0
  -24.1440   12.0560   25.7280 N   0  0  0  0  0  0  0  0  0  0  0  0
  -21.9940   12.6270   26.2750 N   0  0  0  0  0  0  0  0  0  0  0  0
  3  4  2  0
  1  5  2  0
  4  5  1  0
  5  6  1  0
  1  7  1  0
  3  8  1  0
  8 10  1  0
  9 10  1  0
  8 11  1  0
 11 12  1  0
  2 13  2  0
  7 14  2  0
 13 14  1  0
  2 15  1  0
  3 15  1  0
  7 15  1  0
M  END
>  <pdb_id>  (24) 
5RK4

>  <ligand_resn>  (24) 
K1S

>  <SMILES>  (24) 
CCN(CC)c1cc(C)nc2ncnn12

>  <systematic_name>  (24) 
N,N-diethyl-5-methyl[1,2,4]triazolo[1,5-a]pyrimidin-7-amine

>  <ligand_name>  (24) 
Z56791867

$$$$
F600
     RDKit          3D

  9  9  0  0  0  0  0  0  0  0999 V2000
  -21.1060   11.7610   25.3350 N   0  0  0  0  0  0  0  0  0  0  0  0
  -19.8100   12.0600   25.4680 N   0  0  0  0  0  0  0  0  0  0  0  0
  -17.9690   14.5690   24.5770 C   0  0  0  0  0  0  0  0  0  0  0  0
  -17.9270   14.6470   25.9930 O   0  0  0  0  0  0  0  0  0  0  0  0
  -18.1090   13.4120   26.7080 C   0  0  0  0  0  0  0  0  0  0  0  0
  -19.5110   12.9000   26.4460 C   0  0  0  0  0  0  0  0  0  0  0  0
  -21.8510   12.3980   26.2870 C   0  0  0  0  0  0  0  0  0  0  0  0
  -23.1830   12.2560   26.3390 N   0  0  0  0  0  0  0  0  0  0  0  0
  -20.9170   13.3950   27.3670 S   0  0  0  0  0  0  0  0  0  0  0  0
  1  2  1  0
  3  4  1  0
  4  5  1  0
  2  6  2  0
  5  6  1  0
  1  7  2  0
  7  8  1  0
  6  9  1  0
  7  9  1  0
M  END
>  <pdb_id>  (25) 
5RK5

>  <ligand_resn>  (25) 
UVS

>  <SMILES>  (25) 
COCc1sc(N)nn1

>  <systematic_name>  (25) 
5-(methoxymethyl)-1,3,4-thiadiazol-2-amine

>  <ligand_name>  (25) 
Z57478994

$$$$
F710
     RDKit          3D

 16 17  0  0  0  0  0  0  0  0999 V2000
  -17.1110   15.0680   26.6100 N   0  0  0  0  0  0  0  0  0  0  0  0
  -17.4180   14.8330   25.1730 C   0  0  0  0  0  0  0  0  0  0  0  0
  -20.3910   12.5930   26.0530 C   0  0  0  0  0  0  0  0  0  0  0  0
  -21.1740   12.9920   27.1800 C   0  0  0  0  0  0  0  0  0  0  0  0
  -22.5410   12.7590   27.1850 C   0  0  0  0  0  0  0  0  0  0  0  0
  -23.1240   12.1380   26.0710 C   0  0  0  0  0  0  0  0  0  0  0  0
  -20.9980   11.9260   24.9790 C   0  0  0  0  0  0  0  0  0  0  0  0
  -16.0750   17.2050   26.0620 N   0  0  0  0  0  0  0  0  0  0  0  0
  -16.2760   16.2020   26.9990 C   0  0  0  0  0  0  0  0  0  0  0  0
  -15.7800   16.3030   28.1250 O   0  0  0  0  0  0  0  0  0  0  0  0
  -17.0000   13.8090   27.3930 C   0  0  0  0  0  0  0  0  0  0  0  0
  -18.3400   13.0470   27.3680 C   0  0  0  0  0  0  0  0  0  0  0  0
  -18.7370   14.0660   25.0200 C   0  0  0  0  0  0  0  0  0  0  0  0
  -22.3580   11.6840   24.9750 C   0  0  0  0  0  0  0  0  0  0  0  0
  -24.4390   12.0520   26.0000 F   0  0  0  0  0  0  0  0  0  0  0  0
  -19.0000   12.9710   26.0070 N   0  0  0  0  0  0  0  0  0  0  0  0
  1  2  1  0
  3  4  2  0
  4  5  1  0
  5  6  2  0
  3  7  1  0
  1  9  1  0
  8  9  1  0
  9 10  2  0
  1 11  1  0
 11 12  1  0
  2 13  1  0
  6 14  1  0
  7 14  2  0
  6 15  1  0
  3 16  1  0
 12 16  1  0
 13 16  1  0
M  END
>  <pdb_id>  (26) 
5RK6

>  <ligand_resn>  (26) 
O1M

>  <SMILES>  (26) 
NC(=O)N1CCN(CC1)c2ccc(F)cc2

>  <systematic_name>  (26) 
4-(4-fluorophenyl)piperazine-1-carboxamide

>  <ligand_name>  (26) 
Z198194394

$$$$
F393
     RDKit          3D

 11 11  0  0  0  0  0  0  0  0999 V2000
  -17.3770   13.8190   25.0500 C   0  0  0  0  0  0  0  0  0  0  0  0
  -18.1030   13.3560   27.3610 C   0  0  0  0  0  0  0  0  0  0  0  0
  -19.5680   13.4440   26.9640 C   0  0  0  0  0  0  0  0  0  0  0  0
  -19.5440   13.0180   25.5320 N   0  0  0  0  0  0  0  0  0  0  0  0
  -23.9620   11.9950   25.7130 C   0  0  0  0  0  0  0  0  0  0  0  0
  -21.5980   12.0240   25.8820 O   0  0  0  0  0  0  0  0  0  0  0  0
  -22.6760   11.2580   25.3190 C   0  0  0  0  0  0  0  0  0  0  0  0
  -20.5720   12.2890   25.0100 C   0  0  0  0  0  0  0  0  0  0  0  0
  -18.8170   13.9050   24.5780 C   0  0  0  0  0  0  0  0  0  0  0  0
  -20.6120   11.9470   23.8600 O   0  0  0  0  0  0  0  0  0  0  0  0
  -17.2890   14.1160   26.4570 O   0  0  0  0  0  0  0  0  0  0  0  0
  2  3  1  0
  3  4  1  0
  5  7  1  0
  6  7  1  0
  4  8  1  0
  6  8  1  0
  1  9  1  0
  4  9  1  0
  8 10  2  0
  1 11  1  0
  2 11  1  0
M  END
>  <pdb_id>  (27) 
5RK7

>  <ligand_resn>  (27) 
UVM

>  <SMILES>  (27) 
CCOC(=O)N1CCOCC1

>  <systematic_name>  (27) 
ethyl morpholine-4-carboxylate

>  <ligand_name>  (27) 
Z31721097

$$$$
F217
     RDKit          3D

 15 16  0  0  0  0  0  0  0  0999 V2000
  -19.3820   13.4260   25.9620 N   0  0  0  0  0  0  0  0  0  0  0  0
  -23.1480   11.8500   26.5160 C   0  0  0  0  0  0  0  0  0  0  0  0
  -22.6330   12.5990   27.5960 C   0  0  0  0  0  0  0  0  0  0  0  0
  -21.3660   13.1600   27.5450 C   0  0  0  0  0  0  0  0  0  0  0  0
  -20.6380   12.9630   26.3800 C   0  0  0  0  0  0  0  0  0  0  0  0
  -18.4700   14.2320   26.7480 C   0  0  0  0  0  0  0  0  0  0  0  0
  -17.2730   16.4150   26.6360 C   0  0  0  0  0  0  0  0  0  0  0  0
  -20.2170   12.1870   24.2480 N   0  0  0  0  0  0  0  0  0  0  0  0
  -17.9850   13.2720   23.8730 C   0  0  0  0  0  0  0  0  0  0  0  0
  -16.6880   17.1500   25.8770 O   0  0  0  0  0  0  0  0  0  0  0  0
  -19.1930   12.9390   24.6710 C   0  0  0  0  0  0  0  0  0  0  0  0
  -21.1440   12.1940   25.2950 C   0  0  0  0  0  0  0  0  0  0  0  0
  -22.4120   11.6080   25.3520 C   0  0  0  0  0  0  0  0  0  0  0  0
  -18.5730   15.7180   26.3200 C   0  0  0  0  0  0  0  0  0  0  0  0
  -16.7220   16.1800   27.8550 N   0  0  0  0  0  0  0  0  0  0  0  0
  2  3  2  0
  3  4  1  0
  1  5  1  0
  4  5  2  0
  1  6  1  0
  7 10  2  0
  1 11  1  0
  8 11  2  0
  9 11  1  0
  5 12  1  0
  8 12  1  0
  2 13  1  0
 12 13  2  0
  6 14  1  0
  7 14  1  0
  7 15  1  0
M  END
>  <pdb_id>  (28) 
5RK8

>  <ligand_resn>  (28) 
UVJ

>  <SMILES>  (28) 
Cc1nc2ccccc2n1CCC(N)=O

>  <systematic_name>  (28) 
3-(2-methyl-1H-benzimidazol-1-yl)propanamide

>  <ligand_name>  (28) 
Z53116498

$$$$
F421
     RDKit          3D

 10 10  0  0  0  0  0  0  0  0999 V2000
  -23.6180   11.5970   26.2520 N   0  0  0  0  0  0  0  0  0  0  0  0
  -22.5500   11.5510   25.4460 C   0  0  0  0  0  0  0  0  0  0  0  0
  -21.9830   12.9680   27.1320 C   0  0  0  0  0  0  0  0  0  0  0  0
  -19.2240   13.5170   25.6280 N   0  0  0  0  0  0  0  0  0  0  0  0
  -18.9580   14.0050   26.9870 C   0  0  0  0  0  0  0  0  0  0  0  0
  -20.1800   12.1170   24.1510 O   0  0  0  0  0  0  0  0  0  0  0  0
  -18.2850   13.9930   24.6030 C   0  0  0  0  0  0  0  0  0  0  0  0
  -20.2630   12.6540   25.2300 C   0  0  0  0  0  0  0  0  0  0  0  0
  -21.5030   12.4010   25.9450 C   0  0  0  0  0  0  0  0  0  0  0  0
  -23.2470   12.4550   27.2550 N   0  0  0  0  0  0  0  0  0  0  0  0
  1  2  1  0
  4  5  1  0
  4  7  1  0
  4  8  1  0
  6  8  2  0
  2  9  2  0
  3  9  1  0
  8  9  1  0
  1 10  1  0
  3 10  2  0
M  END
>  <pdb_id>  (29) 
5RK9

>  <ligand_resn>  (29) 
UVG

>  <SMILES>  (29) 
CN(C)C(=O)c1c[nH]nc1

>  <systematic_name>  (29) 
N,N-dimethyl-1H-pyrazole-4-carboxamide

>  <ligand_name>  (29) 
Z461898648

$$$$
F603
     RDKit          3D

 14 15  0  0  0  0  0  0  0  0999 V2000
  -20.3930   13.2320   27.6650 N   0  0  0  0  0  0  0  0  0  0  0  0
  -22.1490   11.4500   25.1150 C   0  0  0  0  0  0  0  0  0  0  0  0
  -23.4770   11.6080   25.5170 C   0  0  0  0  0  0  0  0  0  0  0  0
  -23.8230   12.2780   26.6920 C   0  0  0  0  0  0  0  0  0  0  0  0
  -22.8970   12.8270   27.5220 C   0  0  0  0  0  0  0  0  0  0  0  0
  -21.5510   12.7070   27.1250 C   0  0  0  0  0  0  0  0  0  0  0  0
  -19.7470   12.0900   25.7870 N   0  0  0  0  0  0  0  0  0  0  0  0
  -16.4870   15.6200   26.4710 C   0  0  0  0  0  0  0  0  0  0  0  0
  -18.9690   15.8050   26.2660 O   0  0  0  0  0  0  0  0  0  0  0  0
  -18.0150   13.5000   26.9550 C   0  0  0  0  0  0  0  0  0  0  0  0
  -19.3500   12.8640   26.8270 C   0  0  0  0  0  0  0  0  0  0  0  0
  -21.1630   12.0150   25.9530 C   0  0  0  0  0  0  0  0  0  0  0  0
  -17.7360   14.5260   24.5960 O   0  0  0  0  0  0  0  0  0  0  0  0
  -17.8830   14.9330   25.9530 S   0  0  2  0  0  0  0  0  0  0  0  0
  2  3  1  0
  3  4  2  0
  4  5  1  0
  1  6  1  0
  5  6  2  0
  1 11  1  0
  7 11  2  0
 10 11  1  0
  2 12  2  0
  6 12  1  0
  7 12  1  0
 14  8  1  1
  9 14  2  0
 10 14  1  0
 13 14  2  0
M  END
>  <pdb_id>  (30) 
5RKA

>  <ligand_resn>  (30) 
T6J

>  <SMILES>  (30) 
C[S](=O)(=O)Cc1[nH]c2ccccc2n1

>  <systematic_name>  (30) 
2-[(methylsulfonyl)methyl]-1H-benzimidazole

>  <ligand_name>  (30) 
Z126932614

$$$$
F179
     RDKit          3D

 13 14  0  0  0  0  0  0  0  0999 V2000
  -19.8440   12.5900   26.1760 N   0  0  0  0  0  0  0  0  0  0  0  0
  -20.9350   13.1080   26.8640 C   0  0  0  0  0  0  0  0  0  0  0  0
  -18.4740   13.1200   26.1650 C   0  0  1  0  0  0  0  0  0  0  0  0
  -18.1050   13.4860   24.7170 C   0  0  0  0  0  0  0  0  0  0  0  0
  -18.4100   14.9510   24.5830 C   0  0  0  0  0  0  0  0  0  0  0  0
  -18.0900   15.5540   25.9290 C   0  0  0  0  0  0  0  0  0  0  0  0
  -20.1860   11.5440   25.3730 N   0  0  0  0  0  0  0  0  0  0  0  0
  -23.7040   12.3010   28.2600 C   0  0  0  0  0  0  0  0  0  0  0  0
  -24.3650   12.0690   25.8630 O   0  0  0  0  0  0  0  0  0  0  0  0
  -23.4460   12.6450   26.7950 C   0  0  2  0  0  0  0  0  0  0  0  0
  -22.0310   12.3830   26.4370 C   0  0  0  0  0  0  0  0  0  0  0  0
  -21.5330   11.4050   25.5180 C   0  0  0  0  0  0  0  0  0  0  0  0
  -18.3880   14.4490   26.9380 C   0  0  0  0  0  0  0  0  0  0  0  0
  1  2  1  0
  3  1  1  6
  3  4  1  0
  4  5  1  0
  5  6  1  0
  1  7  1  0
 10  8  1  1
  9 10  1  0
  2 11  2  0
 10 11  1  0
  7 12  2  0
 11 12  1  0
  3 13  1  0
  6 13  1  0
M  END
>  <pdb_id>  (31) 
5RKB

>  <ligand_resn>  (31) 
UWG

>  <SMILES>  (31) 
C[C@H](O)c1cnn(c1)C2CCCC2

>  <systematic_name>  (31) 
(1S)-1-(1-cyclopentyl-1H-pyrazol-4-yl)ethan-1-ol

>  <ligand_name>  (31) 
Z2004563941

$$$$
F170
     RDKit          3D

 12 13  0  0  0  0  0  0  0  0999 V2000
  -20.1930   11.8770   24.9510 N   0  0  0  0  0  0  0  0  0  0  0  0
  -21.2320   12.8840   26.6290 N   0  0  0  0  0  0  0  0  0  0  0  0
  -23.5600   12.1990   26.2370 C   0  0  0  0  0  0  0  0  0  0  0  0
  -23.9050   12.8810   27.3510 C   0  0  0  0  0  0  0  0  0  0  0  0
  -22.9230   13.5850   28.1130 C   0  0  0  0  0  0  0  0  0  0  0  0
  -21.6010   13.5870   27.7540 C   0  0  0  0  0  0  0  0  0  0  0  0
  -18.5720   14.6020   25.8930 N   0  0  0  0  0  0  0  0  0  0  0  0
  -18.3410   14.5640   24.4370 C   0  0  0  0  0  0  0  0  0  0  0  0
  -18.7040   13.2470   26.5090 C   0  0  0  0  0  0  0  0  0  0  0  0
  -20.0000   12.6810   26.0410 C   0  0  0  0  0  0  0  0  0  0  0  0
  -22.1920   12.1820   25.8480 C   0  0  0  0  0  0  0  0  0  0  0  0
  -21.5440   11.5670   24.8170 N   0  0  0  0  0  0  0  0  0  0  0  0
  3  4  2  0
  4  5  1  0
  2  6  1  0
  5  6  2  0
  7  8  1  0
  7  9  1  0
  1 10  2  0
  2 10  1  0
  9 10  1  0
  2 11  1  0
  3 11  1  0
  1 12  1  0
 11 12  2  0
M  END
>  <pdb_id>  (32) 
5RKC

>  <ligand_resn>  (32) 
UWD

>  <SMILES>  (32) 
CNCc1nnc2ccccn12

>  <systematic_name>  (32) 
N-methyl-1-([1,2,4]triazolo[4,3-a]pyridin-3-yl)methanamine

>  <ligand_name>  (32) 
Z234898257

$$$$
F501
     RDKit          3D

 13 14  0  0  0  0  0  0  0  0999 V2000
  -19.7180   12.7790   24.9810 N   0  0  0  0  0  0  0  0  0  0  0  0
  -23.0890   12.3530   27.9910 C   0  0  1  0  0  0  0  0  0  0  0  0
  -21.9890   13.4190   27.8300 C   0  0  0  0  0  0  0  0  0  0  0  0
  -21.2750   13.0530   26.6020 C   0  0  0  0  0  0  0  0  0  0  0  0
  -23.8630   12.7240   29.2270 C   0  0  0  0  0  0  0  0  0  0  0  0
  -19.9490   13.2750   26.2400 N   0  0  0  0  0  0  0  0  0  0  0  0
  -18.9350   13.9330   27.0700 C   0  0  0  0  0  0  0  0  0  0  0  0
  -23.7730   12.2440   30.3230 O   0  0  0  0  0  0  0  0  0  0  0  0
  -21.8080   12.3700   25.5110 C   0  0  0  0  0  0  0  0  0  0  0  0
  -23.1970   11.8560   25.4620 C   0  0  0  0  0  0  0  0  0  0  0  0
  -23.9710   12.2310   26.7160 C   0  0  0  0  0  0  0  0  0  0  0  0
  -20.8110   12.2390   24.5620 N   0  0  0  0  0  0  0  0  0  0  0  0
  -24.7270   13.7290   29.0190 O   0  0  0  0  0  0  0  0  0  0  0  0
  2  3  1  0
  3  4  1  0
  2  5  1  1
  1  6  1  0
  4  6  1  0
  6  7  1  0
  5  8  1  0
  4  9  2  0
  9 10  1  0
  2 11  1  0
 10 11  1  0
  1 12  2  0
  9 12  1  0
  5 13  2  0
M  END
>  <pdb_id>  (33) 
5RKD

>  <ligand_resn>  (33) 
UW7

>  <SMILES>  (33) 
Cn1nnc2CC[C@@H](Cc12)C(O)=O

>  <systematic_name>  (33) 
(6S)-1-methyl-4,5,6,7-tetrahydro-1H-benzotriazole-6-carboxylic acid

>  <ligand_name>  (33) 
Z2168282707

$$$$
F126
     RDKit          3D

 13 13  0  0  0  0  0  0  0  0999 V2000
  -20.9500   13.1930   27.0730 N   0  0  0  0  0  0  0  0  0  0  0  0
  -21.7940   11.4150   25.0740 C   0  0  0  0  0  0  0  0  0  0  0  0
  -22.7580   12.0190   25.9510 C   0  0  0  0  0  0  0  0  0  0  0  0
  -22.2760   12.8660   26.9710 C   0  0  0  0  0  0  0  0  0  0  0  0
  -23.2000   13.4580   28.0410 C   0  0  0  0  0  0  0  0  0  0  0  0
  -20.4510   11.7460   25.1890 N   0  0  0  0  0  0  0  0  0  0  0  0
  -18.2290   13.9750   27.2850 C   0  0  0  0  0  0  0  0  0  0  0  0
  -24.4110   13.2420   28.1170 O   0  0  0  0  0  0  0  0  0  0  0  0
  -18.6760   13.2110   26.0450 C   0  0  2  0  0  0  0  0  0  0  0  0
  -18.6000   14.1180   24.8210 C   0  0  0  0  0  0  0  0  0  0  0  0
  -20.0970   12.6520   26.1470 C   0  0  0  0  0  0  0  0  0  0  0  0
  -22.5700   14.2420   28.9620 N   0  0  0  0  0  0  0  0  0  0  0  0
  -24.3950   11.8420   25.6290 Cl  0  0  0  0  0  0  0  0  0  0  0  0
  2  3  2  0
  1  4  2  0
  3  4  1  0
  4  5  1  0
  2  6  1  0
  5  8  2  0
  9  7  1  1
  9 10  1  0
  1 11  1  0
  6 11  2  0
  9 11  1  0
  5 12  1  0
  3 13  1  0
M  END
>  <pdb_id>  (34) 
5RKE

>  <ligand_resn>  (34) 
K2G

>  <SMILES>  (34) 
CC(C)c1ncc(Cl)c(n1)C(N)=O

>  <systematic_name>  (34) 
5-chloro-2-(propan-2-yl)pyrimidine-4-carboxamide

>  <ligand_name>  (34) 
Z906021418

$$$$
F366
     RDKit          3D

 10 10  0  0  0  0  0  0  0  0999 V2000
  -20.1770   11.6040   25.0820 N   0  0  0  0  0  0  0  0  0  0  0  0
  -23.3900   12.0390   26.9030 C   0  0  0  0  0  0  0  0  0  0  0  0
  -23.6360   13.1480   27.9320 C   0  0  0  0  0  0  0  0  0  0  0  0
  -21.4820   11.2760   25.3370 C   0  0  0  0  0  0  0  0  0  0  0  0
  -19.8850   12.5930   25.9210 N   0  0  0  0  0  0  0  0  0  0  0  0
  -18.4620   14.2990   26.8850 C   0  0  0  0  0  0  0  0  0  0  0  0
  -25.0260   13.1920   28.0140 O   0  0  0  0  0  0  0  0  0  0  0  0
  -18.5670   13.2300   25.8460 C   0  0  0  0  0  0  0  0  0  0  0  0
  -20.9710   12.9360   26.7700 C   0  0  0  0  0  0  0  0  0  0  0  0
  -22.0100   12.0930   26.3880 C   0  0  0  0  0  0  0  0  0  0  0  0
  2  3  1  0
  1  4  2  0
  1  5  1  0
  3  7  1  0
  5  8  1  0
  6  8  1  0
  5  9  1  0
  2 10  1  0
  4 10  1  0
  9 10  2  0
M  END
>  <pdb_id>  (35) 
5RKF

>  <ligand_resn>  (35) 
UVY

>  <SMILES>  (35) 
CCn1cc(CCO)cn1

>  <systematic_name>  (35) 
2-(1-ethyl-1H-pyrazol-4-yl)ethan-1-ol

>  <ligand_name>  (35) 
Z1674937530

$$$$
F389
     RDKit          3D

 10 10  0  0  0  0  0  0  0  0999 V2000
  -23.8440   12.5300   27.2300 N   0  0  0  0  0  0  0  0  0  0  0  0
  -23.1140   11.6880   25.3900 C   0  0  0  0  0  0  0  0  0  0  0  0
  -22.4950   12.8230   27.2730 C   0  0  0  0  0  0  0  0  0  0  0  0
  -24.2280   11.8730   26.1200 N   0  0  0  0  0  0  0  0  0  0  0  0
  -18.3010   14.3120   25.2120 C   0  0  0  0  0  0  0  0  0  0  0  0
  -19.8990   13.0530   26.5170 O   0  0  0  0  0  0  0  0  0  0  0  0
  -18.5150   13.2240   26.2520 C   0  0  0  0  0  0  0  0  0  0  0  0
  -20.6520   12.3490   25.6430 C   0  0  0  0  0  0  0  0  0  0  0  0
  -22.0150   12.2920   26.0800 C   0  0  0  0  0  0  0  0  0  0  0  0
  -20.2000   11.8310   24.6420 O   0  0  0  0  0  0  0  0  0  0  0  0
  1  3  2  0
  1  4  1  0
  2  4  1  0
  5  7  1  0
  6  7  1  0
  6  8  1  0
  2  9  2  0
  3  9  1  0
  8  9  1  0
  8 10  2  0
M  END
>  <pdb_id>  (36) 
5RKG

>  <ligand_resn>  (36) 
GOJ

>  <SMILES>  (36) 
CCOC(=O)c1c[nH]nc1

>  <systematic_name>  (36) 
ethyl 1~{H}-pyrazole-4-carboxylate

>  <ligand_name>  (36) 
Z1124201124

$$$$
F488
     RDKit          3D

 18 19  0  0  0  0  0  0  0  0999 V2000
  -24.1920   18.1910   31.0450 N   0  0  0  0  0  0  0  0  0  0  0  0
  -23.4410   12.8670   27.4280 C   0  0  0  0  0  0  0  0  0  0  0  0
  -23.2260   12.1790   26.2430 C   0  0  0  0  0  0  0  0  0  0  0  0
  -21.9520   12.0990   25.7140 C   0  0  0  0  0  0  0  0  0  0  0  0
  -25.1880   13.7700   28.8100 C   0  0  0  0  0  0  0  0  0  0  0  0
  -25.1680   15.2290   28.2960 C   0  0  0  0  0  0  0  0  0  0  0  0
  -24.2110   16.7480   31.4660 C   0  0  0  0  0  0  0  0  0  0  0  0
  -23.1780   18.8750   31.8630 C   0  0  0  0  0  0  0  0  0  0  0  0
  -25.1370   16.2440   29.2300 N   0  0  0  0  0  0  0  0  0  0  0  0
  -19.5380   12.6850   25.7250 C   0  0  0  0  0  0  0  0  0  0  0  0
  -24.7850   12.9550   27.7580 O   0  0  0  0  0  0  0  0  0  0  0  0
  -20.8890   12.7140   26.3660 C   0  0  0  0  0  0  0  0  0  0  0  0
  -23.9150   18.3660   29.5740 C   0  0  0  0  0  0  0  0  0  0  0  0
  -25.0660   17.6830   28.8020 C   0  0  0  0  0  0  0  0  0  0  0  0
  -21.0900   13.3920   27.5830 C   0  0  0  0  0  0  0  0  0  0  0  0
  -22.3710   13.4660   28.1350 C   0  0  0  0  0  0  0  0  0  0  0  0
  -25.2980   15.9850   30.6790 C   0  0  0  0  0  0  0  0  0  0  0  0
  -25.2000   15.5080   27.1040 O   0  0  0  0  0  0  0  0  0  0  0  0
  2  3  2  0
  3  4  1  0
  5  6  1  0
  1  7  1  0
  1  8  1  0
  6  9  1  0
  2 11  1  0
  5 11  1  0
  4 12  2  0
 10 12  1  0
  1 13  1  0
  9 14  1  0
 13 14  1  0
 12 15  1  0
  2 16  1  0
 15 16  2  0
  7 17  1  0
  9 17  1  0
  6 18  2  0
M  CHG  1   1   1
M  END
>  <pdb_id>  (37) 
5RKH

>  <ligand_resn>  (37) 
LPZ

>  <SMILES>  (37) 
C[NH+]1CCN(CC1)C(=O)COc2ccc(C)cc2

>  <systematic_name>  (37) 
2-(4-methylphenoxy)-1-(4-methylpiperazin-4-ium-1-yl)ethanone

>  <ligand_name>  (37) 
Z31432917

$$$$
F709
     RDKit          3D

 16 17  0  0  0  0  0  0  0  0999 V2000
  -17.8630   15.5630   26.4740 N   0  0  0  0  0  0  0  0  0  0  0  0
  -17.9700   15.2000   25.0320 C   0  0  0  0  0  0  0  0  0  0  0  0
  -20.1980   12.5630   25.2120 C   0  0  0  0  0  0  0  0  0  0  0  0
  -21.5060   12.5050   25.8780 C   0  0  0  0  0  0  0  0  0  0  0  0
  -22.6000   11.7720   25.4790 C   0  0  0  0  0  0  0  0  0  0  0  0
  -23.6440   12.0940   26.4120 C   0  0  0  0  0  0  0  0  0  0  0  0
  -16.1340   17.1890   26.0380 N   0  0  0  0  0  0  0  0  0  0  0  0
  -16.9170   16.5260   26.9490 C   0  0  0  0  0  0  0  0  0  0  0  0
  -16.7990   16.7840   28.1430 O   0  0  0  0  0  0  0  0  0  0  0  0
  -18.8290   14.9310   27.4270 C   0  0  0  0  0  0  0  0  0  0  0  0
  -18.8850   13.3950   27.2260 C   0  0  0  0  0  0  0  0  0  0  0  0
  -17.9860   13.6630   24.8950 C   0  0  0  0  0  0  0  0  0  0  0  0
  -23.0960   12.9850   27.2980 C   0  0  0  0  0  0  0  0  0  0  0  0
  -19.0650   13.1340   25.7720 N   0  0  0  0  0  0  0  0  0  0  0  0
  -20.1080   12.0940   24.0980 O   0  0  0  0  0  0  0  0  0  0  0  0
  -21.7890   13.2500   26.9950 O   0  0  0  0  0  0  0  0  0  0  0  0
  1  2  1  0
  3  4  1  0
  4  5  2  0
  5  6  1  0
  1  8  1  0
  7  8  1  0
  8  9  2  0
  1 10  1  0
 10 11  1  0
  2 12  1  0
  6 13  2  0
  3 14  1  0
 11 14  1  0
 12 14  1  0
  3 15  2  0
  4 16  1  0
 13 16  1  0
M  END
>  <pdb_id>  (38) 
5RKI

>  <ligand_resn>  (38) 
K2M

>  <SMILES>  (38) 
NC(=O)N1CCN(CC1)C(=O)c2occc2

>  <systematic_name>  (38) 
4-(furan-2-carbonyl)piperazine-1-carboxamide

>  <ligand_name>  (38) 
Z198194396

$$$$
F369
     RDKit          3D

 15 16  0  0  0  0  0  0  0  0999 V2000
  -16.9370   17.0400   26.0320 N   0  0  0  0  0  0  0  0  0  0  0  0
  -16.0480   17.6090   26.9650 C   0  0  0  0  0  0  0  0  0  0  0  0
  -15.4280   18.9370   26.5070 C   0  0  2  0  0  0  0  0  0  0  0  0
  -14.0250   19.1040   27.0910 C   0  0  0  0  0  0  0  0  0  0  0  0
  -13.7530   20.6150   26.9540 C   0  0  0  0  0  0  0  0  0  0  0  0
  -15.1390   21.3010   26.9590 C   0  0  0  0  0  0  0  0  0  0  0  0
  -18.3260   15.2590   25.0300 C   0  0  0  0  0  0  0  0  0  0  0  0
  -18.6670   13.9760   26.7080 N   0  0  0  0  0  0  0  0  0  0  0  0
  -20.6790   13.1370   27.7350 C   0  0  0  0  0  0  0  0  0  0  0  0
  -15.7340   17.0560   28.0110 O   0  0  0  0  0  0  0  0  0  0  0  0
  -19.2140   12.8490   27.4490 C   0  0  0  0  0  0  0  0  0  0  0  0
  -17.8890   15.0090   27.2270 C   0  0  0  0  0  0  0  0  0  0  0  0
  -17.6650   15.8730   26.1440 C   0  0  0  0  0  0  0  0  0  0  0  0
  -16.1690   20.1670   27.0450 C   0  0  0  0  0  0  0  0  0  0  0  0
  -18.9270   14.1110   25.4030 N   0  0  0  0  0  0  0  0  0  0  0  0
  1  2  1  0
  3  2  1  1
  3  4  1  0
  4  5  1  0
  5  6  1  0
  2 10  2  0
  8 11  1  0
  9 11  1  0
  8 12  1  0
  1 13  1  0
  7 13  1  0
 12 13  2  0
  3 14  1  0
  6 14  1  0
  7 15  2  0
  8 15  1  0
M  END
>  <pdb_id>  (39) 
5RKJ

>  <ligand_resn>  (39) 
UWY

>  <SMILES>  (39) 
CCn1cc(NC(=O)C2CCCC2)cn1

>  <systematic_name>  (39) 
N-(1-ethyl-1H-pyrazol-4-yl)cyclopentanecarboxamide

>  <ligand_name>  (39) 
Z373768898

$$$$
F367
     RDKit          3D

 17 18  0  0  0  0  0  0  0  0999 V2000
  -22.7520   11.3280   28.6360 N   0  0  0  0  0  0  0  0  0  0  0  0
  -19.7010   11.8000   25.3710 N   0  0  0  0  0  0  0  0  0  0  0  0
  -22.8880   11.9060   27.3070 C   0  0  0  0  0  0  0  0  0  0  0  0
  -23.1790   11.9690   29.7810 C   0  0  0  0  0  0  0  0  0  0  0  0
  -22.9100   11.2410   31.0420 C   0  0  0  0  0  0  0  0  0  0  0  0
  -22.7120   11.9180   32.2520 C   0  0  0  0  0  0  0  0  0  0  0  0
  -22.3160   11.1970   33.3810 C   0  0  0  0  0  0  0  0  0  0  0  0
  -22.7380    9.8360   31.0010 C   0  0  0  0  0  0  0  0  0  0  0  0
  -19.4810   12.7830   26.3080 N   0  0  0  0  0  0  0  0  0  0  0  0
  -18.1300   14.5520   25.2200 C   0  0  0  0  0  0  0  0  0  0  0  0
  -23.7500   13.0610   29.7600 O   0  0  0  0  0  0  0  0  0  0  0  0
  -18.2230   13.5560   26.3860 C   0  0  0  0  0  0  0  0  0  0  0  0
  -20.9750   11.3530   25.6140 C   0  0  0  0  0  0  0  0  0  0  0  0
  -20.5770   12.9620   27.1370 C   0  0  0  0  0  0  0  0  0  0  0  0
  -21.5360   12.0740   26.7200 C   0  0  0  0  0  0  0  0  0  0  0  0
  -22.1420    9.8040   33.2450 C   0  0  0  0  0  0  0  0  0  0  0  0
  -22.3520    9.1200   32.0860 N   0  0  0  0  0  0  0  0  0  0  0  0
  1  3  1  0
  1  4  1  0
  4  5  1  0
  5  6  2  0
  6  7  1  0
  5  8  1  0
  2  9  1  0
  4 11  2  0
  9 12  1  0
 10 12  1  0
  2 13  2  0
  9 14  1  0
  3 15  1  0
 13 15  1  0
 14 15  2  0
  7 16  2  0
  8 17  2  0
 16 17  1  0
M  END
>  <pdb_id>  (40) 
5RKK

>  <ligand_resn>  (40) 
K0P

>  <SMILES>  (40) 
CCn1cc(CNC(=O)c2cccnc2)cn1

>  <systematic_name>  (40) 
N-[(1-ethyl-1H-pyrazol-4-yl)methyl]pyridine-3-carboxamide

>  <ligand_name>  (40) 
Z275181224

$$$$
F687
     RDKit          3D

 14 15  0  0  0  0  0  0  0  0999 V2000
  -18.3850   15.7580   25.4860 N   0  0  0  0  0  0  0  0  0  0  0  0
  -21.4940   11.9690   25.9090 C   0  0  0  0  0  0  0  0  0  0  0  0
  -21.5220   12.6070   27.1700 C   0  0  0  0  0  0  0  0  0  0  0  0
  -19.0390   12.7720   27.3360 C   0  0  0  0  0  0  0  0  0  0  0  0
  -18.7080   13.8300   26.3650 C   0  0  0  0  0  0  0  0  0  0  0  0
  -18.4030   13.5830   25.0370 C   0  0  0  0  0  0  0  0  0  0  0  0
  -20.3820   12.9800   27.9020 N   0  0  0  0  0  0  0  0  0  0  0  0
  -22.7730   12.8880   27.7490 C   0  0  0  0  0  0  0  0  0  0  0  0
  -23.9660   12.5680   27.1130 C   0  0  0  0  0  0  0  0  0  0  0  0
  -23.9160   11.9650   25.8560 C   0  0  0  0  0  0  0  0  0  0  0  0
  -22.6790   11.6500   25.2550 C   0  0  0  0  0  0  0  0  0  0  0  0
  -18.2080   14.8290   24.4910 C   0  0  0  0  0  0  0  0  0  0  0  0
  -22.8180   13.5350   28.9280 F   0  0  0  0  0  0  0  0  0  0  0  0
  -18.7080   15.1760   26.6600 N   0  0  0  0  0  0  0  0  0  0  0  0
  2  3  2  0
  4  5  1  0
  5  6  1  0
  3  7  1  0
  4  7  1  0
  3  8  1  0
  8  9  2  0
  9 10  1  0
  2 11  1  0
 10 11  2  0
  1 12  1  0
  6 12  2  0
  8 13  1  0
  1 14  1  0
  5 14  2  0
M  END
>  <pdb_id>  (41) 
5RKL

>  <ligand_resn>  (41) 
UWV

>  <SMILES>  (41) 
Fc1ccccc1NCc2cc[nH]n2

>  <systematic_name>  (41) 
2-fluoro-N-[(1H-pyrazol-3-yl)methyl]aniline

>  <ligand_name>  (41) 
Z1545196403

$$$$
F455
     RDKit          3D

 13 13  0  0  0  0  0  0  0  0999 V2000
  -21.7890   11.7300   24.8760 N   0  0  0  0  0  0  0  0  0  0  0  0
  -21.2950   12.5480   25.9040 C   0  0  0  0  0  0  0  0  0  0  0  0
  -23.0480   11.3960   24.8940 C   0  0  0  0  0  0  0  0  0  0  0  0
  -23.9530   11.7980   25.8970 C   0  0  0  0  0  0  0  0  0  0  0  0
  -23.4810   12.5400   26.9660 C   0  0  0  0  0  0  0  0  0  0  0  0
  -22.1390   12.9300   26.9860 C   0  0  0  0  0  0  0  0  0  0  0  0
  -19.9630   13.1450   25.7710 N   0  0  0  0  0  0  0  0  0  0  0  0
  -18.1710   13.7480   24.1080 C   0  0  0  0  0  0  0  0  0  0  0  0
  -17.8410   10.5800   24.0140 O   0  0  0  0  0  0  0  0  0  0  0  0
  -19.1210   12.6560   24.6170 C   0  0  1  0  0  0  0  0  0  0  0  0
  -18.4230   11.3250   25.0750 C   0  0  0  0  0  0  0  0  0  0  0  0
  -19.2040   13.4250   27.0460 C   0  0  0  0  0  0  0  0  0  0  0  0
  -21.7450   13.6480   28.0290 F   0  0  0  0  0  0  0  0  0  0  0  0
  1  2  2  0
  1  3  1  0
  3  4  2  0
  4  5  1  0
  2  6  1  0
  5  6  2  0
  2  7  1  0
  7 10  1  0
 10  8  1  1
  9 11  1  0
 10 11  1  0
  7 12  1  0
  6 13  1  0
M  END
>  <pdb_id>  (42) 
5RKM

>  <ligand_resn>  (42) 
O0V

>  <SMILES>  (42) 
C[C@@H](CO)N(C)c1ncccc1F

>  <systematic_name>  (42) 
(2S)-2-[(3-fluoropyridin-2-yl)(methyl)amino]propan-1-ol

>  <ligand_name>  (42) 
Z2017168803

$$$$
F368
     RDKit          3D

 14 15  0  0  0  0  0  0  0  0999 V2000
  -18.7030   14.1990   26.8080 N   0  0  0  0  0  0  0  0  0  0  0  0
  -18.8300   14.1820   25.4730 N   0  0  0  0  0  0  0  0  0  0  0  0
  -17.6150   16.0060   26.1190 C   0  0  0  0  0  0  0  0  0  0  0  0
  -16.0020   17.6940   26.9760 C   0  0  0  0  0  0  0  0  0  0  0  0
  -15.3170   18.9810   26.5960 C   0  0  1  0  0  0  0  0  0  0  0  0
  -14.1570   19.4200   27.5170 C   0  0  0  0  0  0  0  0  0  0  0  0
  -13.4260   19.8860   26.2310 C   0  0  0  0  0  0  0  0  0  0  0  0
  -18.1760   15.2770   25.0090 C   0  0  0  0  0  0  0  0  0  0  0  0
  -20.8930   13.2770   27.4350 C   0  0  0  0  0  0  0  0  0  0  0  0
  -19.3720   13.1790   27.6140 C   0  0  0  0  0  0  0  0  0  0  0  0
  -17.9630   15.2720   27.2550 C   0  0  0  0  0  0  0  0  0  0  0  0
  -14.2940   18.8770   25.4400 C   0  0  0  0  0  0  0  0  0  0  0  0
  -16.8270   17.1390   26.0020 N   0  0  0  0  0  0  0  0  0  0  0  0
  -15.8080   17.1670   28.0450 O   0  0  0  0  0  0  0  0  0  0  0  0
  1  2  1  0
  5  4  1  1
  5  6  1  0
  6  7  1  0
  2  8  2  0
  3  8  1  0
  1 10  1  0
  9 10  1  0
  1 11  1  0
  3 11  2  0
  5 12  1  0
  7 12  1  0
  3 13  1  0
  4 13  1  0
  4 14  2  0
M  END
>  <pdb_id>  (43) 
5RKN

>  <ligand_resn>  (43) 
NUA

>  <SMILES>  (43) 
CCn1cc(NC(=O)C2CCC2)cn1

>  <systematic_name>  (43) 
N-(1-ethyl-1H-pyrazol-4-yl)cyclobutanecarboxamide

>  <ligand_name>  (43) 
Z373768900

$$$$
F666
     RDKit          3D

 18 20  0  0  0  0  0  0  0  0999 V2000
  -16.5590   14.3270   26.2300 N   0  0  0  0  0  0  0  0  0  0  0  0
  -21.1680   12.8260   27.0050 C   0  0  0  0  0  0  0  0  0  0  0  0
  -22.5370   12.6000   27.0300 C   0  0  0  0  0  0  0  0  0  0  0  0
  -18.2770   12.7840   27.1660 C   0  0  0  0  0  0  0  0  0  0  0  0
  -16.7610   13.0400   26.9420 C   0  0  0  0  0  0  0  0  0  0  0  0
  -17.3390   14.4920   24.9610 C   0  0  0  0  0  0  0  0  0  0  0  0
  -15.9800   15.4080   26.8840 C   0  0  0  0  0  0  0  0  0  0  0  0
  -14.6130   17.5040   26.2770 C   0  0  0  0  0  0  0  0  0  0  0  0
  -15.4930   15.2440   27.9830 O   0  0  0  0  0  0  0  0  0  0  0  0
  -15.9500   16.7630   26.2730 C   0  0  2  0  0  0  0  0  0  0  0  0
  -15.7000   17.8890   27.2590 C   0  0  0  0  0  0  0  0  0  0  0  0
  -18.8380   14.1590   25.1940 C   0  0  0  0  0  0  0  0  0  0  0  0
  -19.0090   12.8360   25.8740 N   0  0  0  0  0  0  0  0  0  0  0  0
  -20.3910   12.4010   25.8950 C   0  0  0  0  0  0  0  0  0  0  0  0
  -20.9900   11.6990   24.8430 C   0  0  0  0  0  0  0  0  0  0  0  0
  -22.3630   11.4640   24.8390 C   0  0  0  0  0  0  0  0  0  0  0  0
  -23.1360   11.9590   25.9230 C   0  0  0  0  0  0  0  0  0  0  0  0
  -24.4710   11.9460   25.8000 F   0  0  0  0  0  0  0  0  0  0  0  0
  2  3  2  0
  1  5  1  0
  4  5  1  0
  1  6  1  0
  1  7  1  0
  7  9  2  0
 10  7  1  1
  8 10  1  0
  8 11  1  0
 10 11  1  0
  6 12  1  0
  4 13  1  0
 12 13  1  0
  2 14  1  0
 13 14  1  0
 14 15  2  0
 15 16  1  0
  3 17  1  0
 16 17  2  0
 17 18  1  0
M  END
>  <pdb_id>  (44) 
5RKO

>  <ligand_resn>  (44) 
GX4

>  <SMILES>  (44) 
Fc1ccc(cc1)N2CCN(CC2)C(=O)C3CC3

>  <systematic_name>  (44) 
cyclopropyl-[4-(4-fluorophenyl)piperazin-1-yl]methanone

>  <ligand_name>  (44) 
Z30620520

$$$$
F274
     RDKit          3D

 15 16  0  0  0  0  0  0  0  0999 V2000
  -20.9170   16.2910   28.8980 N   0  0  0  0  0  0  0  0  0  0  0  0
  -19.6940   14.1570   28.5250 C   0  0  0  0  0  0  0  0  0  0  0  0
  -21.9750   16.9350   29.4660 C   0  0  0  0  0  0  0  0  0  0  0  0
  -22.0150   18.4360   29.3860 C   0  0  0  0  0  0  0  0  0  0  0  0
  -23.0750   16.2550   30.0940 C   0  0  0  0  0  0  0  0  0  0  0  0
  -23.0860   14.9190   30.0770 C   0  0  0  0  0  0  0  0  0  0  0  0
  -20.9350   14.9170   28.9120 N   0  0  0  0  0  0  0  0  0  0  0  0
  -18.1170   14.1550   23.7850 C   0  0  0  0  0  0  0  0  0  0  0  0
  -21.9790   12.9490   29.3380 O   0  0  0  0  0  0  0  0  0  0  0  0
  -18.7000   13.7980   25.0640 C   0  0  0  0  0  0  0  0  0  0  0  0
  -19.0160   14.7210   26.1130 C   0  0  0  0  0  0  0  0  0  0  0  0
  -19.4130   13.9210   27.1230 C   0  0  0  0  0  0  0  0  0  0  0  0
  -22.0020   14.1590   29.4490 C   0  0  0  0  0  0  0  0  0  0  0  0
  -18.9500   12.5380   25.4730 N   0  0  0  0  0  0  0  0  0  0  0  0
  -19.3820   12.6080   26.7290 O   0  0  0  0  0  0  0  0  0  0  0  0
  1  3  2  0
  3  4  1  0
  3  5  1  0
  5  6  2  0
  1  7  1  0
  2  7  1  0
  8 10  1  0
 10 11  1  0
  2 12  1  0
 11 12  2  0
  6 13  1  0
  7 13  1  0
  9 13  2  0
 10 14  2  0
 12 15  1  0
 14 15  1  0
M  END
>  <pdb_id>  (45) 
5RKP

>  <ligand_resn>  (45) 
UWS

>  <SMILES>  (45) 
CC1=NN(Cc2onc(C)c2)C(=O)C=C1

>  <systematic_name>  (45) 
6-methyl-2-[(3-methyl-1,2-oxazol-5-yl)methyl]pyridazin-3(2H)-one

>  <ligand_name>  (45) 
Z1079512010

$$$$
F229
     RDKit          3D

 15 16  0  0  0  0  0  0  0  0999 V2000
  -18.7100   16.2180   26.1590 N   0  0  0  0  0  0  0  0  0  0  0  0
  -18.7110   12.6200   26.9740 C   0  0  0  0  0  0  0  0  0  0  0  0
  -21.0910   12.0970   26.3870 C   0  0  0  0  0  0  0  0  0  0  0  0
  -21.5450   12.6660   27.5550 C   0  0  0  0  0  0  0  0  0  0  0  0
  -22.9020   12.8370   27.7870 C   0  0  0  0  0  0  0  0  0  0  0  0
  -23.8240   12.4740   26.8220 C   0  0  0  0  0  0  0  0  0  0  0  0
  -22.0640   11.7360   25.4190 C   0  0  0  0  0  0  0  0  0  0  0  0
  -18.1770   15.7230   25.0360 N   0  0  0  0  0  0  0  0  0  0  0  0
  -17.7070   13.5230   24.1140 C   0  0  0  0  0  0  0  0  0  0  0  0
  -18.1080   14.4000   25.2070 C   0  0  0  0  0  0  0  0  0  0  0  0
  -18.9600   15.2270   27.0670 C   0  0  0  0  0  0  0  0  0  0  0  0
  -18.5790   14.0280   26.4780 C   0  0  0  0  0  0  0  0  0  0  0  0
  -23.4290   11.9300   25.6230 C   0  0  0  0  0  0  0  0  0  0  0  0
  -21.6580   11.1650   24.3450 F   0  0  0  0  0  0  0  0  0  0  0  0
  -19.7180   11.8590   26.1810 N   0  0  0  0  0  0  0  0  0  0  0  0
  3  4  2  0
  4  5  1  0
  5  6  2  0
  3  7  1  0
  1  8  1  0
  8 10  2  0
  9 10  1  0
  1 11  1  0
  2 12  1  0
 10 12  1  0
 11 12  2  0
  6 13  1  0
  7 13  2  0
  7 14  1  0
  2 15  1  0
  3 15  1  0
M  END
>  <pdb_id>  (46) 
5RKQ

>  <ligand_resn>  (46) 
UXJ

>  <SMILES>  (46) 
Cc1n[nH]cc1CNc2ccccc2F

>  <systematic_name>  (46) 
2-fluoro-N-[(3-methyl-1H-pyrazol-4-yl)methyl]aniline

>  <ligand_name>  (46) 
Z1545196101

$$$$
F619
     RDKit          3D

 13 13  0  0  0  0  0  0  0  0999 V2000
  -22.2390   22.7720    8.8070 N   0  0  0  0  0  0  0  0  0  0  0  0
  -22.0350   21.8650    9.7710 C   0  0  0  0  0  0  0  0  0  0  0  0
  -23.0100   20.9700   10.1790 C   0  0  0  0  0  0  0  0  0  0  0  0
  -24.2910   20.9680    9.6130 C   0  0  0  0  0  0  0  0  0  0  0  0
  -24.5230   21.8830    8.5850 C   0  0  0  0  0  0  0  0  0  0  0  0
  -23.7220   23.7120    7.1860 N   0  0  0  0  0  0  0  0  0  0  0  0
  -21.5910   24.0580    5.9020 C   0  0  0  0  0  0  0  0  0  0  0  0
  -24.0600   26.6220    6.8790 O   0  0  0  0  0  0  0  0  0  0  0  0
  -22.6960   24.7070    6.7490 C   0  0  1  0  0  0  0  0  0  0  0  0
  -23.3380   25.8580    5.9490 C   0  0  0  0  0  0  0  0  0  0  0  0
  -23.4850   22.7950    8.1940 C   0  0  0  0  0  0  0  0  0  0  0  0
  -25.6930   21.9120    7.9440 F   0  0  0  0  0  0  0  0  0  0  0  0
  -22.5570   19.7940   11.3200 Cl  0  0  0  0  0  0  0  0  0  0  0  0
  1  2  2  0
  2  3  1  0
  3  4  2  0
  4  5  1  0
  6  9  1  0
  9  7  1  6
  8 10  1  0
  9 10  1  0
  1 11  1  0
  5 11  2  0
  6 11  1  0
  5 12  1  0
  3 13  1  0
M  END
>  <pdb_id>  (47) 
5RKR

>  <ligand_resn>  (47) 
O0G

>  <SMILES>  (47) 
C[C@@H](CO)Nc1ncc(Cl)cc1F

>  <systematic_name>  (47) 
(2S)-2-[(5-chloro-3-fluoropyridin-2-yl)amino]propan-1-ol

>  <ligand_name>  (47) 
Z1432018343

$$$$
F780
     RDKit          3D

 18 20  0  0  0  0  0  0  0  0999 V2000
   -7.7300    3.5450   15.9490 C   0  0  0  0  0  0  0  0  0  0  0  0
   -9.0320    4.0460   15.6790 C   0  0  0  0  0  0  0  0  0  0  0  0
  -10.1540    3.3410   16.1260 C   0  0  0  0  0  0  0  0  0  0  0  0
   -9.9850    2.1490   16.8460 C   0  0  0  0  0  0  0  0  0  0  0  0
   -8.7010    1.6500   17.1160 C   0  0  0  0  0  0  0  0  0  0  0  0
   -5.8390    4.9260   16.6970 C   0  0  0  0  0  0  0  0  0  0  0  0
   -4.5870    6.0270   18.9480 C   0  0  0  0  0  0  0  0  0  0  0  0
   -6.5320    5.8580   17.4930 C   0  0  0  0  0  0  0  0  0  0  0  0
   -6.7540    5.3150   14.4070 N   0  0  0  0  0  0  0  0  0  0  0  0
   -5.9980    5.8480   12.4520 C   0  0  2  0  0  0  0  0  0  0  0  0
   -5.0330    5.3340   11.5860 O   0  0  0  0  0  0  0  0  0  0  0  0
   -5.5080    6.0420   13.9250 C   0  0  0  0  0  0  0  0  0  0  0  0
   -4.5190    4.5470   17.0300 C   0  0  0  0  0  0  0  0  0  0  0  0
   -3.8960    5.1010   18.1510 C   0  0  0  0  0  0  0  0  0  0  0  0
   -5.8990    6.4040   18.6260 C   0  0  0  0  0  0  0  0  0  0  0  0
   -6.9050    4.7140   13.0120 C   0  0  0  0  0  0  0  0  0  0  0  0
   -6.4860    4.2900   15.4860 C   0  0  2  0  0  0  0  0  0  0  0  0
   -7.5750    2.3480   16.6660 C   0  0  0  0  0  0  0  0  0  0  0  0
  1  2  2  0
  2  3  1  0
  3  4  2  0
  4  5  1  0
  6  8  1  0
 10 11  1  6
  9 12  1  0
 10 12  1  0
  6 13  2  0
  7 14  2  0
 13 14  1  0
  7 15  1  0
  8 15  2  0
  9 16  1  0
 10 16  1  0
  1 17  1  0
  6 17  1  0
 17  9  1  6
  1 18  1  0
  5 18  2  0
M  END
>  <pdb_id>  (48) 
5RKS

>  <ligand_resn>  (48) 
UXG

>  <SMILES>  (48) 
OC1CN(C1)C(c2ccccc2)c3ccccc3

>  <systematic_name>  (48) 
1-(diphenylmethyl)azetidin-3-ol

>  <ligand_name>  (48) 
Z1696844792

$$$$
F650
     RDKit          3D

 12 13  0  0  0  0  0  0  0  0999 V2000
  -23.7860   12.8400   27.1270 N   0  0  0  0  0  0  0  0  0  0  0  0
  -19.6930   14.4210   26.9390 C   0  0  0  0  0  0  0  0  0  0  0  0
  -21.9230   12.6200   25.8670 C   0  0  0  0  0  0  0  0  0  0  0  0
  -22.4820   13.1960   27.0370 C   0  0  0  0  0  0  0  0  0  0  0  0
  -22.9520   11.8830   25.2820 C   0  0  0  0  0  0  0  0  0  0  0  0
  -19.6260   13.6240   25.6870 N   0  0  0  0  0  0  0  0  0  0  0  0
  -20.6070   12.7790   25.2080 C   0  0  0  0  0  0  0  0  0  0  0  0
  -20.3720   12.1700   24.1570 O   0  0  0  0  0  0  0  0  0  0  0  0
  -18.4620   13.9820   24.8980 C   0  0  0  0  0  0  0  0  0  0  0  0
  -18.1610   15.3930   25.3600 C   0  0  0  0  0  0  0  0  0  0  0  0
  -18.4710   15.3170   26.8510 C   0  0  0  0  0  0  0  0  0  0  0  0
  -24.0660   12.0610   26.0720 N   0  0  0  0  0  0  0  0  0  0  0  0
  1  4  1  0
  3  4  2  0
  3  5  1  0
  2  6  1  0
  3  7  1  0
  6  7  1  0
  7  8  2  0
  6  9  1  0
  9 10  1  0
  2 11  1  0
 10 11  1  0
  1 12  1  0
  5 12  2  0
M  END
>  <pdb_id>  (49) 
5RKT

>  <ligand_resn>  (49) 
UXD

>  <SMILES>  (49) 
O=C(N1CCCC1)c2c[nH]nc2

>  <systematic_name>  (49) 
(1H-pyrazol-4-yl)(pyrrolidin-1-yl)methanone

>  <ligand_name>  (49) 
Z1266933824

$$$$
F740
     RDKit          3D

 15 17  0  0  0  0  0  0  0  0999 V2000
  -21.7240   12.5520   26.5350 C   0  0  0  0  0  0  0  0  0  0  0  0
  -22.8230   12.0430   25.8220 C   0  0  0  0  0  0  0  0  0  0  0  0
  -24.1100   12.1360   26.3310 C   0  0  0  0  0  0  0  0  0  0  0  0
  -24.2720   12.7190   27.5800 C   0  0  0  0  0  0  0  0  0  0  0  0
  -25.0330   13.5330   29.5200 C   0  0  0  0  0  0  0  0  0  0  0  0
  -21.9160   13.1060   27.8000 C   0  0  0  0  0  0  0  0  0  0  0  0
  -19.5900   13.6610   26.3700 N   0  0  0  0  0  0  0  0  0  0  0  0
  -20.3620   12.6570   25.9240 C   0  0  0  0  0  0  0  0  0  0  0  0
  -19.9970   11.8900   25.0340 O   0  0  0  0  0  0  0  0  0  0  0  0
  -18.3210   14.0090   25.7360 C   0  0  2  0  0  0  0  0  0  0  0  0
  -17.9310   15.4380   25.6720 C   0  0  0  0  0  0  0  0  0  0  0  0
  -18.3530   14.7230   24.4380 C   0  0  0  0  0  0  0  0  0  0  0  0
  -23.1970   13.1830   28.2970 C   0  0  0  0  0  0  0  0  0  0  0  0
  -25.4350   12.9320   28.2850 O   0  0  0  0  0  0  0  0  0  0  0  0
  -23.6200   13.7430   29.4810 O   0  0  0  0  0  0  0  0  0  0  0  0
  1  2  2  0
  2  3  1  0
  3  4  2  0
  1  6  1  0
  1  8  1  0
  7  8  1  0
  8  9  2  0
 10  7  1  1
 10 11  1  0
 10 12  1  0
 11 12  1  0
  4 13  1  0
  6 13  2  0
  4 14  1  0
  5 14  1  0
  5 15  1  0
 13 15  1  0
M  END
>  <pdb_id>  (50) 
5RKU

>  <ligand_resn>  (50) 
UXA

>  <SMILES>  (50) 
O=C(NC1CC1)c2ccc3OCOc3c2

>  <systematic_name>  (50) 
N-cyclopropyl-2H-1,3-benzodioxole-5-carboxamide

>  <ligand_name>  (50) 
Z32367954

$$$$
F400A
     RDKit          3D

 13 13  0  0  0  0  0  0  0  0999 V2000
  -22.2550   22.3450    8.8370 C   0  0  0  0  0  0  0  0  0  0  0  0
  -22.3070   21.4380    9.8780 C   0  0  0  0  0  0  0  0  0  0  0  0
  -23.4800   20.6870   10.0590 C   0  0  0  0  0  0  0  0  0  0  0  0
  -24.6030   20.8540    9.2390 C   0  0  0  0  0  0  0  0  0  0  0  0
  -24.5530   21.7630    8.1780 C   0  0  0  0  0  0  0  0  0  0  0  0
  -23.3620   22.4950    7.9830 C   0  0  0  0  0  0  0  0  0  0  0  0
  -24.0230   20.0690   12.4230 C   0  0  0  0  0  0  0  0  0  0  0  0
  -23.2360   23.3600    6.8720 O   0  0  0  0  0  0  0  0  0  0  0  0
  -21.8710   23.7180    6.5290 C   0  0  0  0  0  0  0  0  0  0  0  0
  -21.9600   24.5250    5.2620 C   0  0  0  0  0  0  0  0  0  0  0  0
  -24.1610   19.2880   13.3170 O   0  0  0  0  0  0  0  0  0  0  0  0
  -24.3200   21.3670   12.5860 O   0  0  0  0  0  0  0  0  0  0  0  0
  -23.4790   19.6290   11.1160 C   0  0  0  0  0  0  0  0  0  0  0  0
  1  2  2  0
  2  3  1  0
  3  4  2  0
  4  5  1  0
  1  6  1  0
  5  6  2  0
  6  8  1  0
  8  9  1  0
  9 10  1  0
  7 11  1  0
  7 12  2  0
  3 13  1  0
  7 13  1  0
M  END
>  <pdb_id>  (51) 
5RKV

>  <ligand_resn>  (51) 
YI6

>  <SMILES>  (51) 
CCOc1ccc(CC(O)=O)cc1

>  <systematic_name>  (51) 
2-(4-ethoxyphenyl)ethanoic acid

>  <ligand_name>  (51) 
Z56877838

$$$$
F400B
     RDKit          3D

 13 13  0  0  0  0  0  0  0  0999 V2000
  -21.2220   12.2130   25.3410 C   0  0  0  0  0  0  0  0  0  0  0  0
  -22.4450   12.0420   25.9530 C   0  0  0  0  0  0  0  0  0  0  0  0
  -22.6570   12.5520   27.2260 C   0  0  2  0  0  0  0  0  0  0  0  0
  -21.7090   13.3110   27.8990 C   0  0  0  0  0  0  0  0  0  0  0  0
  -20.4710   13.5050   27.3320 C   0  0  0  0  0  0  0  0  0  0  0  0
  -20.2400   12.9230   26.0550 C   0  0  1  0  0  0  0  0  0  0  0  0
  -24.5480   13.2550   28.5530 C   0  0  0  0  0  0  0  0  0  0  0  0
  -19.0150   12.9230   25.4690 O   0  0  0  0  0  0  0  0  0  0  0  0
  -18.1690   13.9960   25.8100 C   0  0  0  0  0  0  0  0  0  0  0  0
  -17.9010   14.5790   24.4330 C   0  0  0  0  0  0  0  0  0  0  0  0
  -24.1960   13.5440   29.8170 O   0  0  0  0  0  0  0  0  0  0  0  0
  -25.4030   13.8980   28.0450 O   0  0  0  0  0  0  0  0  0  0  0  0
  -23.8600   12.1020   27.9350 C   0  0  0  0  0  0  0  0  0  0  0  0
  1  2  1  0
  2  3  1  0
  3  4  1  0
  4  5  1  0
  1  6  1  0
  5  6  1  0
  6  8  1  1
  8  9  1  0
  9 10  1  0
  7 11  1  0
  7 12  1  0
  3 13  1  1
  7 13  1  0
M  END
>  <pdb_id>  (52) 
5RKV

>  <ligand_resn>  (52) 
YI6

>  <SMILES>  (52) 
CCOc1ccc(CC(O)=O)cc1

>  <systematic_name>  (52) 
2-(4-ethoxyphenyl)ethanoic acid

>  <ligand_name>  (52) 
Z56877838

$$$$
F579
     RDKit          3D

 17 19  0  0  0  0  0  0  0  0999 V2000
  -25.7110   13.6000   30.0520 N   0  0  0  0  0  0  0  0  0  0  0  0
  -23.4380   12.6330   27.4130 C   0  0  0  0  0  0  0  0  0  0  0  0
  -24.6530   13.3640   29.1530 C   0  0  0  0  0  0  0  0  0  0  0  0
  -25.6790   14.3180   31.2940 C   0  0  0  0  0  0  0  0  0  0  0  0
  -26.9980   14.3440   31.9720 C   0  0  2  0  0  0  0  0  0  0  0  0
  -27.3380   15.5660   32.7970 C   0  0  0  0  0  0  0  0  0  0  0  0
  -22.3990   13.2490   28.1310 C   0  0  0  0  0  0  0  0  0  0  0  0
  -24.7260   12.7170   28.0070 N   0  0  0  0  0  0  0  0  0  0  0  0
  -18.4640   12.6140   26.7900 C   0  0  0  0  0  0  0  0  0  0  0  0
  -19.5570   12.4830   25.8930 O   0  0  0  0  0  0  0  0  0  0  0  0
  -20.8370   12.5490   26.4750 C   0  0  0  0  0  0  0  0  0  0  0  0
  -21.0950   13.2290   27.6800 C   0  0  0  0  0  0  0  0  0  0  0  0
  -21.8640   11.9110   25.7470 C   0  0  0  0  0  0  0  0  0  0  0  0
  -23.1780   11.9610   26.2130 C   0  0  0  0  0  0  0  0  0  0  0  0
  -26.9980   14.2690   33.4860 C   0  0  0  0  0  0  0  0  0  0  0  0
  -24.7150   14.8760   31.7670 O   0  0  0  0  0  0  0  0  0  0  0  0
  -23.0030   13.9420   29.5770 S   0  0  0  0  0  0  0  0  0  0  0  0
  1  3  1  0
  1  4  1  0
  5  4  1  1
  5  6  1  0
  2  7  2  0
  2  8  1  0
  3  8  2  0
  9 10  1  0
 10 11  1  0
  7 12  1  0
 11 12  2  0
 11 13  1  0
  2 14  1  0
 13 14  2  0
  5 15  1  0
  6 15  1  0
  4 16  2  0
  3 17  1  0
  7 17  1  0
M  END
>  <pdb_id>  (53) 
5RKW

>  <ligand_resn>  (53) 
UX7

>  <SMILES>  (53) 
COc1ccc2nc(NC(=O)C3CC3)sc2c1

>  <systematic_name>  (53) 
N-(6-methoxy-1,3-benzothiazol-2-yl)cyclopropanecarboxamide

>  <ligand_name>  (53) 
Z27678561

$$$$
F275A
     RDKit          3D

 12 12  0  0  0  0  0  0  0  0999 V2000
  -23.2320   12.2800   26.6440 C   0  0  0  0  0  0  0  0  0  0  0  0
  -22.7730   12.6650   27.8940 C   0  0  0  0  0  0  0  0  0  0  0  0
  -21.4070   12.8640   28.0940 C   0  0  0  0  0  0  0  0  0  0  0  0
  -23.6950   14.4700   29.4840 N   0  0  0  0  0  0  0  0  0  0  0  0
  -19.0210   12.8460   27.2240 C   0  0  0  0  0  0  0  0  0  0  0  0
  -23.3710   12.1360   30.2510 O   0  0  0  0  0  0  0  0  0  0  0  0
  -20.5070   12.6750   27.0390 C   0  0  0  0  0  0  0  0  0  0  0  0
  -20.9720   12.2940   25.7910 C   0  0  0  0  0  0  0  0  0  0  0  0
  -22.3260   12.0980   25.6150 C   0  0  0  0  0  0  0  0  0  0  0  0
  -22.7570   11.7260   24.4460 F   0  0  0  0  0  0  0  0  0  0  0  0
  -25.1810   12.7140   28.6510 O   0  0  0  0  0  0  0  0  0  0  0  0
  -23.8560   12.8900   29.1330 S   0  0  2  0  0  0  0  0  0  0  0  0
  1  2  2  0
  2  3  1  0
  3  7  2  0
  5  7  1  0
  7  8  1  0
  1  9  1  0
  8  9  2  0
  9 10  1  0
  2 12  1  0
 12  4  1  1
  6 12  2  0
 11 12  2  0
M  END
>  <pdb_id>  (54) 
5RKX

>  <ligand_resn>  (54) 
UR1

>  <SMILES>  (54) 
Cc1cc(F)cc(c1)[S](N)(=O)=O

>  <systematic_name>  (54) 
3-fluoro-5-methylbenzene-1-sulfonamide

>  <ligand_name>  (54) 
Z1324080698

$$$$
F275B
     RDKit          3D

 12 12  0  0  0  0  0  0  0  0999 V2000
  -21.4350   23.3580    8.5490 C   0  0  0  0  0  0  0  0  0  0  0  0
  -22.4360   23.7150    7.6440 C   0  0  2  0  0  0  0  0  0  0  0  0
  -23.7070   23.1580    7.7760 C   0  0  0  0  0  0  0  0  0  0  0  0
  -23.3790   25.7760    6.4460 N   0  0  0  0  0  0  0  0  0  0  0  0
  -25.3350   21.6430    8.8740 C   0  0  0  0  0  0  0  0  0  0  0  0
  -22.2160   24.0280    5.1560 O   0  0  0  0  0  0  0  0  0  0  0  0
  -23.9820   22.2320    8.7850 C   0  0  0  0  0  0  0  0  0  0  0  0
  -22.9910   21.8510    9.6850 C   0  0  0  0  0  0  0  0  0  0  0  0
  -21.7220   22.4180    9.5470 C   0  0  0  0  0  0  0  0  0  0  0  0
  -20.7530   22.0050   10.3550 F   0  0  0  0  0  0  0  0  0  0  0  0
  -20.9360   25.4920    6.6760 O   0  0  0  0  0  0  0  0  0  0  0  0
  -22.1120   24.7430    6.3810 S   0  0  2  0  0  0  0  0  0  0  0  0
  2  1  1  6
  2  3  1  0
  3  7  1  0
  5  7  1  0
  7  8  1  0
  1  9  1  0
  8  9  1  0
  9 10  1  0
  2 12  1  0
 12  4  1  6
  6 12  1  0
 11 12  1  0
M  END
>  <pdb_id>  (55) 
5RKX

>  <ligand_resn>  (55) 
UR1

>  <SMILES>  (55) 
Cc1cc(F)cc(c1)[S](N)(=O)=O

>  <systematic_name>  (55) 
3-fluoro-5-methylbenzene-1-sulfonamide

>  <ligand_name>  (55) 
Z1324080698

$$$$
F503
     RDKit          3D

 15 16  0  0  0  0  0  0  0  0999 V2000
  -19.8010   16.8050   27.2580 C   0  0  0  0  0  0  0  0  0  0  0  0
  -21.0240   16.4250   26.7060 C   0  0  0  0  0  0  0  0  0  0  0  0
  -21.8920   17.3710   26.1880 C   0  0  0  0  0  0  0  0  0  0  0  0
  -21.5570   18.7350   26.1900 C   0  0  0  0  0  0  0  0  0  0  0  0
  -20.3600   19.1610   26.7460 C   0  0  0  0  0  0  0  0  0  0  0  0
  -19.9580   13.5090   28.2410 C   0  0  0  0  0  0  0  0  0  0  0  0
  -18.2110   14.9130   25.1610 N   0  0  0  0  0  0  0  0  0  0  0  0
  -17.9570   14.4900   23.7880 C   0  0  0  0  0  0  0  0  0  0  0  0
  -18.8910   12.8010   25.6730 O   0  0  0  0  0  0  0  0  0  0  0  0
  -18.7030   13.9620   26.0360 C   0  0  0  0  0  0  0  0  0  0  0  0
  -18.4830   13.3190   28.4600 C   0  0  0  0  0  0  0  0  0  0  0  0
  -18.9780   14.3570   27.4600 C   0  0  2  0  0  0  0  0  0  0  0  0
  -18.7910   15.8100   27.8230 C   0  0  0  0  0  0  0  0  0  0  0  0
  -19.5040   18.1910   27.2900 C   0  0  0  0  0  0  0  0  0  0  0  0
  -18.3920   18.5820   27.8830 F   0  0  0  0  0  0  0  0  0  0  0  0
  1  2  2  0
  2  3  1  0
  3  4  2  0
  4  5  1  0
  7  8  1  0
  7 10  1  0
  9 10  2  0
  6 11  1  0
  6 12  1  0
 10 12  1  0
 11 12  1  0
  1 13  1  0
 12 13  1  1
  1 14  1  0
  5 14  2  0
 14 15  1  0
M  END
>  <pdb_id>  (56) 
5RKY

>  <ligand_resn>  (56) 
UX1

>  <SMILES>  (56) 
CNC(=O)C1(CC1)Cc2ccccc2F

>  <systematic_name>  (56) 
1-[(2-fluorophenyl)methyl]-N-methylcyclopropane-1-carboxamide

>  <ligand_name>  (56) 
Z1796014543

$$$$
